PERFORM/On Peak 2019 v23_Perform_NY/On Peak 2019 v23/nyiso_On_Peak_v23_shunts_as_z_load.m
function mpc = nyiso_on_peak_v23_shunts_as_z_load
%NYISO_ON_PEAK_V23_SHUNTS_AS_Z_LOAD

%% MATPOWER Case Format : Version 2
mpc.version = '2';

%%-----  Power Flow Data  -----%%
%% system MVA base
mpc.baseMVA = 100;

%% bus data
%	bus_i	type	Pd	Qd	Gs	Bs	area	Vm	Va	baseKV	zone	Vmax	Vmin	lam_P	lam_Q	mu_Vmax	mu_Vmin
mpc.bus = [
	1	1	115.19	0	0	0	66	1.0031526	91.234932	115	66	1.1	0.9	5000.0000	0.0000	0.0000	0.0000;
	2	1	1.54	0	0	0	70	1.007407	77.447058	69	70	1.1	0.9	5000.0000	0.0000	0.0000	0.0000;
	3	1	3.42	0	0	0	70	1.0090452	82.863645	115	70	1.1	0.9	5000.0000	0.0000	0.0000	0.0000;
	4	1	74.05	0	0	0	68	0.9918251	94.668595	115	68	1.1	0.9	5000.0000	0.0000	0.0000	0.0000;
	5	1	3.42	0	0	0	70	1.0062988	86.266782	115	70	1.1	0.9	5000.0000	0.0000	0.0000	0.0000;
	6	2	3.42	0	0	0	70	1.02	82.869047	115	70	1.1	0.9	5000.0000	0.0000	0.0000	0.0000;
	7	1	6.84	0	0	0	70	1.0167806	82.118145	115	70	1.1	0.9	5000.0000	0.0000	0.0000	0.0000;
	8	1	6.84	0	0	0	70	1.0192093	82.370013	115	70	1.1	0.9	5000.0000	0.0000	0.0000	0.0000;
	9	1	36.73	0	0	0	71	1.0129516	69.103318	115	71	1.1	0.9	5000.0000	0.0000	0.0000	0.0000;
	10	1	14.81	0	0	0	68	0.9835384	91.223194	115	68	1.1	0.9	5000.0000	0.0000	0.0000	0.0000;
	11	1	6.84	0	0	0	70	1.0093745	82.819503	115	70	1.1	0.9	5000.0000	0.0000	0.0000	0.0000;
	12	1	3.42	0	0	0	70	1.0184117	81.2489	115	70	1.1	0.9	5000.0000	0.0000	0.0000	0.0000;
	13	1	13.69	0	0	0	70	1.0168327	80.436735	115	70	1.1	0.9	5000.0000	0.0000	0.0000	0.0000;
	14	1	4.15	0	0	0	69	1.0059558	78.659681	115	69	1.1	0.9	5000.0000	0.0000	0.0000	0.0000;
	15	2	4.15	0	0	0	69	1.02	100.012987	115	69	1.1	0.9	5000.0000	0.0000	0.0000	0.0000;
	16	1	10.39	0	0	0	69	1.0130211	88.559568	115	69	1.1	0.9	5000.0000	0.0000	0.0000	0.0000;
	17	2	44.52	0	0	0	75	1.01	48.503942	138	75	1.1	0.9	5000.0000	0.0000	0.0000	0.0000;
	18	2	41.74	0	0	0	75	1.01	58.868571	69	75	1.1	0.9	5000.0000	0.0000	0.0000	0.0000;
	19	2	77.35	0	0	0	75	1.02	59.220555	115	75	1.1	0.9	5000.0000	0.0000	0.0000	0.0000;
	20	1	8.31	0	0	0	69	1.0176238	101.877172	115	69	1.1	0.9	5000.0000	0.0000	0.0000	0.0000;
	21	2	8.31	0	0	0	69	1.0182993	101.920108	115	69	1.1	0.9	5000.0000	0.0000	0.0000	0.0000;
	22	1	1.54	0	0	0	70	1.0096096	77.135576	69	70	1.1	0.9	5000.0000	0.0000	0.0000	0.0000;
	23	1	10.39	0	0	0	69	1.0160162	80.042108	115	69	1.1	0.9	5000.0000	0.0000	0.0000	0.0000;
	24	2	20.89	0	0	0	67	1.02	98.841563	115	67	1.1	0.9	5000.0000	0.0000	0.0000	0.0000;
	25	1	2.08	0	0	0	69	1.0199449	97.666371	115	69	1.1	0.9	5000.0000	0.0000	0.0000	0.0000;
	26	2	0	0	0	0	74	1.02	62.935794	345	74	1.1	0.9	5000.0000	0.0000	0.0000	0.0000;
	27	2	8.36	0	0	0	67	1.02	93.165333	115	67	1.1	0.9	5000.0000	0.0000	0.0000	0.0000;
	28	2	2.08	0	0	0	69	1.019967	98.65082	115	69	1.1	0.9	5000.0000	0.0000	0.0000	0.0000;
	29	2	16.71	0	0	0	67	1.02	93.799742	115	67	1.1	0.9	5000.0000	0.0000	0.0000	0.0000;
	30	2	8.36	0	0	0	67	1.02	94.665285	115	67	1.1	0.9	5000.0000	0.0000	0.0000	0.0000;
	31	2	3.42	0	0	0	70	1.02	83.516392	115	70	1.1	0.9	5000.0000	0.0000	0.0000	0.0000;
	32	2	3.42	0	0	0	70	1.02	83.532997	115	70	1.1	0.9	5000.0000	0.0000	0.0000	0.0000;
	33	2	5.05	0	0	0	65	1.02	100.241658	115	65	1.1	0.9	5000.0000	0.0000	0.0000	0.0000;
	34	2	8.36	0	0	0	67	1.02	102.981143	115	67	1.1	0.9	5000.0000	0.0000	0.0000	0.0000;
	35	2	35.24	0	0	0	68	0.9991821	92.9971	115	68	1.1	0.9	5000.0000	0.0000	0.0000	0.0000;
	36	1	35.24	0	0	0	68	0.9990658	93.031623	115	68	1.1	0.9	5000.0000	0.0000	0.0000	0.0000;
	37	2	7.58	0	0	0	65	1.02	97.577056	115	65	1.1	0.9	5000.0000	0.0000	0.0000	0.0000;
	38	2	5.05	0	0	0	65	1.02	98.90476	115	65	1.1	0.9	5000.0000	0.0000	0.0000	0.0000;
	39	2	0	0	0	0	65	1.02	102.392812	230	65	1.1	0.9	5000.0000	0.0000	0.0000	0.0000;
	40	1	2.08	0	0	0	69	1.0192287	104.119915	115	69	1.1	0.9	5000.0000	0.0000	0.0000	0.0000;
	41	2	5.05	0	0	0	65	1.02	96.669766	115	65	1.1	0.9	5000.0000	0.0000	0.0000	0.0000;
	42	1	17.68	0	0	0	65	1.0200236	95.374059	115	65	1.1	0.9	5000.0000	0.0000	0.0000	0.0000;
	43	1	5.05	0	0	0	65	1.0189095	95.080675	115	65	1.1	0.9	5000.0000	0.0000	0.0000	0.0000;
	44	1	2.53	0	0	0	65	1.0189193	95.086823	115	65	1.1	0.9	5000.0000	0.0000	0.0000	0.0000;
	45	1	7.58	0	0	0	65	1.0189276	95.088804	115	65	1.1	0.9	5000.0000	0.0000	0.0000	0.0000;
	46	1	5.05	0	0	0	65	1.0199734	95.361666	115	65	1.1	0.9	5000.0000	0.0000	0.0000	0.0000;
	47	1	2.53	0	0	0	65	1.021785	95.622776	115	65	1.1	0.9	5000.0000	0.0000	0.0000	0.0000;
	48	1	10.1	0	0	0	65	1.0201261	95.824091	115	65	1.1	0.9	5000.0000	0.0000	0.0000	0.0000;
	49	1	4.15	0	0	0	69	1.0178512	82.296322	115	69	1.1	0.9	5000.0000	0.0000	0.0000	0.0000;
	50	1	4.15	0	0	0	69	1.0070769	99.734073	115	69	1.1	0.9	5000.0000	0.0000	0.0000	0.0000;
	51	1	4.18	0	0	0	67	1.0179251	94.749587	115	67	1.1	0.9	5000.0000	0.0000	0.0000	0.0000;
	52	2	4.18	0	0	0	67	1.02	95.17526	115	67	1.1	0.9	5000.0000	0.0000	0.0000	0.0000;
	53	2	8.36	0	0	0	67	1.02	97.032042	115	67	1.1	0.9	5000.0000	0.0000	0.0000	0.0000;
	54	1	0	0	0	0	67	1.0262365	95.870273	230	67	1.1	0.9	5000.0000	0.0000	0.0000	0.0000;
	55	1	12.54	0	0	0	67	1.0172851	91.581602	115	67	1.1	0.9	5000.0000	0.0000	0.0000	0.0000;
	56	1	8.36	0	0	0	67	1.0167528	90.914786	115	67	1.1	0.9	5000.0000	0.0000	0.0000	0.0000;
	57	1	8.36	0	0	0	67	1.0168226	90.256588	115	67	1.1	0.9	5000.0000	0.0000	0.0000	0.0000;
	58	1	6.27	0	0	0	67	1.0192685	102.671673	115	67	1.1	0.9	5000.0000	0.0000	0.0000	0.0000;
	59	1	14.54	0	0	0	69	1.0201301	97.659802	115	69	1.1	0.9	5000.0000	0.0000	0.0000	0.0000;
	60	2	1.87	0	0	0	69	1.02	77.424425	69	69	1.1	0.9	5000.0000	0.0000	0.0000	0.0000;
	61	1	12.54	0	0	0	67	1.0172779	90.009064	115	67	1.1	0.9	5000.0000	0.0000	0.0000	0.0000;
	62	1	0	0	0	0	70	1.0200131	84.663049	345	70	1.1	0.9	5000.0000	0.0000	0.0000	0.0000;
	63	2	0	0	0	0	70	1.02	84.678815	345	70	1.1	0.9	5000.0000	0.0000	0.0000	0.0000;
	64	1	2.08	0	0	0	69	1.0050073	97.169322	115	69	1.1	0.9	5000.0000	0.0000	0.0000	0.0000;
	65	1	5.05	0	0	0	65	1.0210882	94.521484	115	65	1.1	0.9	5000.0000	0.0000	0.0000	0.0000;
	66	1	5.05	0	0	0	65	1.0180273	93.595677	115	65	1.1	0.9	5000.0000	0.0000	0.0000	0.0000;
	67	1	2.53	0	0	0	65	1.0181084	93.589245	115	65	1.1	0.9	5000.0000	0.0000	0.0000	0.0000;
	68	1	5.05	0	0	0	65	1.0180182	94.023953	115	65	1.1	0.9	5000.0000	0.0000	0.0000	0.0000;
	69	2	12.63	0	0	0	65	1.02	94.319291	115	65	1.1	0.9	5000.0000	0.0000	0.0000	0.0000;
	70	1	5.05	0	0	0	65	1.0198401	94.275922	115	65	1.1	0.9	5000.0000	0.0000	0.0000	0.0000;
	71	1	7.58	0	0	0	65	1.0226158	94.725996	115	65	1.1	0.9	5000.0000	0.0000	0.0000	0.0000;
	72	1	2.53	0	0	0	65	1.0201691	94.46199	115	65	1.1	0.9	5000.0000	0.0000	0.0000	0.0000;
	73	1	5.05	0	0	0	65	1.020114	94.453107	115	65	1.1	0.9	5000.0000	0.0000	0.0000	0.0000;
	74	1	10.1	0	0	0	65	1.0199331	94.430051	115	65	1.1	0.9	5000.0000	0.0000	0.0000	0.0000;
	75	1	2.53	0	0	0	65	1.019722	94.399164	115	65	1.1	0.9	5000.0000	0.0000	0.0000	0.0000;
	76	1	5.05	0	0	0	65	1.0197135	94.397151	115	65	1.1	0.9	5000.0000	0.0000	0.0000	0.0000;
	77	1	12.63	0	0	0	65	1.0203777	94.322708	115	65	1.1	0.9	5000.0000	0.0000	0.0000	0.0000;
	78	1	5.05	0	0	0	65	1.0215947	94.486029	115	65	1.1	0.9	5000.0000	0.0000	0.0000	0.0000;
	79	2	0	0	0	0	74	1.02	62.719179	345	74	1.1	0.9	5000.0000	0.0000	0.0000	0.0000;
	80	2	4.15	0	0	0	69	1.02	98.700759	115	69	1.1	0.9	5000.0000	0.0000	0.0000	0.0000;
	81	2	20.89	0	0	0	67	1.0221	87.920362	115	67	1.1	0.9	5000.0000	0.0000	0.0000	0.0000;
	82	2	2.08	0	0	0	69	1.02	86.203021	115	69	1.1	0.9	5000.0000	0.0000	0.0000	0.0000;
	83	2	6.23	0	0	0	69	1.02	97.71819	115	69	1.1	0.9	5000.0000	0.0000	0.0000	0.0000;
	84	2	3.42	0	0	0	70	1.02	83.413444	115	70	1.1	0.9	5000.0000	0.0000	0.0000	0.0000;
	85	1	2.53	0	0	0	65	1.0179049	93.820458	115	65	1.1	0.9	5000.0000	0.0000	0.0000	0.0000;
	86	1	5.05	0	0	0	65	1.0182449	96.273245	115	65	1.1	0.9	5000.0000	0.0000	0.0000	0.0000;
	87	1	7.58	0	0	0	65	1.0178244	96.432107	115	65	1.1	0.9	5000.0000	0.0000	0.0000	0.0000;
	88	1	5.05	0	0	0	65	1.0176483	96.698875	115	65	1.1	0.9	5000.0000	0.0000	0.0000	0.0000;
	89	1	2.53	0	0	0	65	1.0176294	96.792898	115	65	1.1	0.9	5000.0000	0.0000	0.0000	0.0000;
	90	1	5.05	0	0	0	65	1.0177782	97.060047	115	65	1.1	0.9	5000.0000	0.0000	0.0000	0.0000;
	91	1	5.05	0	0	0	65	1.0181105	97.444222	115	65	1.1	0.9	5000.0000	0.0000	0.0000	0.0000;
	92	1	14.4	0	0	0	66	1.0128553	93.245064	115	66	1.1	0.9	5000.0000	0.0000	0.0000	0.0000;
	93	1	14.4	0	0	0	66	1.0186821	96.086453	115	66	1.1	0.9	5000.0000	0.0000	0.0000	0.0000;
	94	1	14.4	0	0	0	66	1.0191994	98.60006	115	66	1.1	0.9	5000.0000	0.0000	0.0000	0.0000;
	95	2	7.2	0	0	0	66	1.02	98.78721	115	66	1.1	0.9	5000.0000	0.0000	0.0000	0.0000;
	96	1	7.2	0	0	0	66	1.017118	98.119296	115	66	1.1	0.9	5000.0000	0.0000	0.0000	0.0000;
	97	1	14.4	0	0	0	66	1.017184	98.138088	115	66	1.1	0.9	5000.0000	0.0000	0.0000	0.0000;
	98	1	14.4	0	0	0	66	1.0142814	93.733262	115	66	1.1	0.9	5000.0000	0.0000	0.0000	0.0000;
	99	1	14.4	0	0	0	66	1.0120838	93.07793	115	66	1.1	0.9	5000.0000	0.0000	0.0000	0.0000;
	100	1	7.2	0	0	0	66	1.0102786	92.543456	115	66	1.1	0.9	5000.0000	0.0000	0.0000	0.0000;
	101	1	5.05	0	0	0	65	1.0009579	92.578457	115	65	1.1	0.9	5000.0000	0.0000	0.0000	0.0000;
	102	1	5.05	0	0	0	65	1.0009912	92.586116	115	65	1.1	0.9	5000.0000	0.0000	0.0000	0.0000;
	103	1	2.53	0	0	0	65	1.0017512	92.777879	115	65	1.1	0.9	5000.0000	0.0000	0.0000	0.0000;
	104	1	5.05	0	0	0	65	1.0146886	96.150641	115	65	1.1	0.9	5000.0000	0.0000	0.0000	0.0000;
	105	1	20.2	0	0	0	65	1.0148788	96.031761	115	65	1.1	0.9	5000.0000	0.0000	0.0000	0.0000;
	106	1	5.05	0	0	0	65	1.0154565	96.164504	115	65	1.1	0.9	5000.0000	0.0000	0.0000	0.0000;
	107	1	12.63	0	0	0	65	1.0166843	96.461564	115	65	1.1	0.9	5000.0000	0.0000	0.0000	0.0000;
	108	1	8.36	0	0	0	67	1.0212816	90.090518	115	67	1.1	0.9	5000.0000	0.0000	0.0000	0.0000;
	109	1	8.36	0	0	0	67	1.0208686	90.379672	115	67	1.1	0.9	5000.0000	0.0000	0.0000	0.0000;
	110	1	12.54	0	0	0	67	1.0199038	88.491787	115	67	1.1	0.9	5000.0000	0.0000	0.0000	0.0000;
	111	1	8.36	0	0	0	67	1.0172926	89.635849	115	67	1.1	0.9	5000.0000	0.0000	0.0000	0.0000;
	112	1	8.36	0	0	0	67	1.0184808	87.222084	115	67	1.1	0.9	5000.0000	0.0000	0.0000	0.0000;
	113	1	8.36	0	0	0	67	1.017749	87.16988	115	67	1.1	0.9	5000.0000	0.0000	0.0000	0.0000;
	114	1	8.36	0	0	0	67	1.0179776	87.363563	115	67	1.1	0.9	5000.0000	0.0000	0.0000	0.0000;
	115	1	8.36	0	0	0	67	1.0201446	86.585758	115	67	1.1	0.9	5000.0000	0.0000	0.0000	0.0000;
	116	2	8.36	0	0	0	67	1.02	88.362559	115	67	1.1	0.9	5000.0000	0.0000	0.0000	0.0000;
	117	1	12.54	0	0	0	67	1.0206425	87.588853	115	67	1.1	0.9	5000.0000	0.0000	0.0000	0.0000;
	118	1	8.36	0	0	0	67	1.018561	87.274005	115	67	1.1	0.9	5000.0000	0.0000	0.0000	0.0000;
	119	1	8.36	0	0	0	67	1.0183521	87.363268	115	67	1.1	0.9	5000.0000	0.0000	0.0000	0.0000;
	120	1	8.36	0	0	0	67	1.0185914	87.580991	115	67	1.1	0.9	5000.0000	0.0000	0.0000	0.0000;
	121	1	8.36	0	0	0	67	1.0197836	87.412173	115	67	1.1	0.9	5000.0000	0.0000	0.0000	0.0000;
	122	1	8.36	0	0	0	67	1.0208348	87.629006	115	67	1.1	0.9	5000.0000	0.0000	0.0000	0.0000;
	123	1	8.36	0	0	0	67	1.0194513	87.352335	115	67	1.1	0.9	5000.0000	0.0000	0.0000	0.0000;
	124	1	25.07	0	0	0	67	1.0188666	90.709612	115	67	1.1	0.9	5000.0000	0.0000	0.0000	0.0000;
	125	2	2.08	0	0	0	69	1.0171498	106.89708	115	69	1.1	0.9	5000.0000	0.0000	0.0000	0.0000;
	126	1	2.08	0	0	0	69	1.0171533	106.867755	115	69	1.1	0.9	5000.0000	0.0000	0.0000	0.0000;
	127	2	34.22	0	0	0	70	1.02	84.326258	115	70	1.1	0.9	5000.0000	0.0000	0.0000	0.0000;
	128	2	43.2	0	0	0	66	1.02	98.922867	115	66	1.1	0.9	5000.0000	0.0000	0.0000	0.0000;
	129	1	21.6	0	0	0	66	1.0058593	89.180938	115	66	1.1	0.9	5000.0000	0.0000	0.0000	0.0000;
	130	1	7.2	0	0	0	66	1.0044663	90.006325	115	66	1.1	0.9	5000.0000	0.0000	0.0000	0.0000;
	131	1	25.07	0	0	0	67	1.0180275	94.776144	115	67	1.1	0.9	5000.0000	0.0000	0.0000	0.0000;
	132	1	0	0	0	0	67	1.0211161	97.629144	230	67	1.1	0.9	5000.0000	0.0000	0.0000	0.0000;
	133	1	12.54	0	0	0	67	1.01759	89.800811	115	67	1.1	0.9	5000.0000	0.0000	0.0000	0.0000;
	134	1	12.63	0	0	0	65	1.0160031	93.686105	115	65	1.1	0.9	5000.0000	0.0000	0.0000	0.0000;
	135	1	5.05	0	0	0	65	1.017664	95.874246	115	65	1.1	0.9	5000.0000	0.0000	0.0000	0.0000;
	136	1	5.05	0	0	0	65	1.0176308	95.917735	115	65	1.1	0.9	5000.0000	0.0000	0.0000	0.0000;
	137	1	5.05	0	0	0	65	1.0216472	95.9864	115	65	1.1	0.9	5000.0000	0.0000	0.0000	0.0000;
	138	2	0	0	0	0	65	1.0194542	102.219545	230	65	1.1	0.9	5000.0000	0.0000	0.0000	0.0000;
	139	1	7.58	0	0	0	65	1.0179785	98.489751	115	65	1.1	0.9	5000.0000	0.0000	0.0000	0.0000;
	140	1	10.76	0	0	0	65	1.0180223	98.505985	115	65	1.1	0.9	5000.0000	0.0000	0.0000	0.0000;
	141	1	5.05	0	0	0	65	1.0133813	96.831629	115	65	1.1	0.9	5000.0000	0.0000	0.0000	0.0000;
	142	1	7.58	0	0	0	65	1.0126024	96.511293	115	65	1.1	0.9	5000.0000	0.0000	0.0000	0.0000;
	143	1	5.05	0	0	0	65	1.0251904	96.61104	115	65	1.1	0.9	5000.0000	0.0000	0.0000	0.0000;
	144	1	5.05	0	0	0	65	1.0222126	96.24617	115	65	1.1	0.9	5000.0000	0.0000	0.0000	0.0000;
	145	1	7.58	0	0	0	65	1.0207744	96.078107	115	65	1.1	0.9	5000.0000	0.0000	0.0000	0.0000;
	146	1	2.53	0	0	0	65	1.0203813	95.966454	115	65	1.1	0.9	5000.0000	0.0000	0.0000	0.0000;
	147	1	4.18	0	0	0	67	1.0182755	91.048607	115	67	1.1	0.9	5000.0000	0.0000	0.0000	0.0000;
	148	1	4.18	0	0	0	67	1.0193823	89.546664	115	67	1.1	0.9	5000.0000	0.0000	0.0000	0.0000;
	149	1	12.54	0	0	0	67	1.0194804	89.587108	115	67	1.1	0.9	5000.0000	0.0000	0.0000	0.0000;
	150	2	8.36	0	0	0	67	1.0199867	89.52469	115	67	1.1	0.9	5000.0000	0.0000	0.0000	0.0000;
	151	1	4.18	0	0	0	67	1.0199967	89.524827	115	67	1.1	0.9	5000.0000	0.0000	0.0000	0.0000;
	152	1	8.36	0	0	0	67	1.019616	94.289623	115	67	1.1	0.9	5000.0000	0.0000	0.0000	0.0000;
	153	1	4.18	0	0	0	67	1.0154755	88.192271	115	67	1.1	0.9	5000.0000	0.0000	0.0000	0.0000;
	154	1	12.54	0	0	0	67	1.0153612	89.097263	115	67	1.1	0.9	5000.0000	0.0000	0.0000	0.0000;
	155	1	4.18	0	0	0	67	1.0151062	89.033251	115	67	1.1	0.9	5000.0000	0.0000	0.0000	0.0000;
	156	1	8.36	0	0	0	67	1.0146329	88.880571	115	67	1.1	0.9	5000.0000	0.0000	0.0000	0.0000;
	157	1	4.18	0	0	0	67	1.0146194	88.872761	115	67	1.1	0.9	5000.0000	0.0000	0.0000	0.0000;
	158	1	4.18	0	0	0	67	1.0147643	88.903319	115	67	1.1	0.9	5000.0000	0.0000	0.0000	0.0000;
	159	1	5.05	0	0	0	65	1.0239773	96.270381	115	65	1.1	0.9	5000.0000	0.0000	0.0000	0.0000;
	160	1	2.53	0	0	0	65	1.020989	95.963797	115	65	1.1	0.9	5000.0000	0.0000	0.0000	0.0000;
	161	2	5.05	0	0	0	65	1.02	95.023944	115	65	1.1	0.9	5000.0000	0.0000	0.0000	0.0000;
	162	1	10.1	0	0	0	65	1.0198208	95.009935	115	65	1.1	0.9	5000.0000	0.0000	0.0000	0.0000;
	163	1	12.63	0	0	0	65	1.0192903	94.987824	115	65	1.1	0.9	5000.0000	0.0000	0.0000	0.0000;
	164	1	2.53	0	0	0	65	1.0192859	94.986765	115	65	1.1	0.9	5000.0000	0.0000	0.0000	0.0000;
	165	1	2.53	0	0	0	65	1.0174787	95.725686	115	65	1.1	0.9	5000.0000	0.0000	0.0000	0.0000;
	166	1	2.53	0	0	0	65	1.0177147	95.783897	115	65	1.1	0.9	5000.0000	0.0000	0.0000	0.0000;
	167	1	8.36	0	0	0	67	1.0122367	93.225123	115	67	1.1	0.9	5000.0000	0.0000	0.0000	0.0000;
	168	1	2.08	0	0	0	69	1.0130355	90.452886	115	69	1.1	0.9	5000.0000	0.0000	0.0000	0.0000;
	169	1	8.36	0	0	0	67	1.0129169	92.757585	115	67	1.1	0.9	5000.0000	0.0000	0.0000	0.0000;
	170	1	8.36	0	0	0	67	1.0136512	92.654023	115	67	1.1	0.9	5000.0000	0.0000	0.0000	0.0000;
	171	1	33.43	0	0	0	67	1.013328	92.635389	115	67	1.1	0.9	5000.0000	0.0000	0.0000	0.0000;
	172	1	8.36	0	0	0	67	1.0114275	93.015255	115	67	1.1	0.9	5000.0000	0.0000	0.0000	0.0000;
	173	1	12.54	0	0	0	67	1.0101096	93.642408	115	67	1.1	0.9	5000.0000	0.0000	0.0000	0.0000;
	174	1	8.36	0	0	0	67	1.009437	93.349554	115	67	1.1	0.9	5000.0000	0.0000	0.0000	0.0000;
	175	1	8.36	0	0	0	67	1.0084263	93.09834	115	67	1.1	0.9	5000.0000	0.0000	0.0000	0.0000;
	176	1	8.36	0	0	0	67	1.0072341	92.751515	115	67	1.1	0.9	5000.0000	0.0000	0.0000	0.0000;
	177	1	4.18	0	0	0	67	1.0074576	92.810678	115	67	1.1	0.9	5000.0000	0.0000	0.0000	0.0000;
	178	2	12.54	0	0	0	67	1.0072776	92.763581	115	67	1.1	0.9	5000.0000	0.0000	0.0000	0.0000;
	179	1	8.36	0	0	0	67	1.0073592	92.78117	115	67	1.1	0.9	5000.0000	0.0000	0.0000	0.0000;
	180	1	8.36	0	0	0	67	1.0081948	92.964274	115	67	1.1	0.9	5000.0000	0.0000	0.0000	0.0000;
	181	1	8.36	0	0	0	67	1.0072432	92.755052	115	67	1.1	0.9	5000.0000	0.0000	0.0000	0.0000;
	182	1	8.36	0	0	0	67	1.0036062	94.905804	115	67	1.1	0.9	5000.0000	0.0000	0.0000	0.0000;
	183	1	8.36	0	0	0	67	1.0036422	94.914562	115	67	1.1	0.9	5000.0000	0.0000	0.0000	0.0000;
	184	1	8.36	0	0	0	67	1.0103931	93.764528	115	67	1.1	0.9	5000.0000	0.0000	0.0000	0.0000;
	185	1	8.36	0	0	0	67	1.0047938	94.73218	115	67	1.1	0.9	5000.0000	0.0000	0.0000	0.0000;
	186	1	6.23	0	0	0	69	1.0205733	80.85099	115	69	1.1	0.9	5000.0000	0.0000	0.0000	0.0000;
	187	1	4.15	0	0	0	69	1.0186709	81.776247	115	69	1.1	0.9	5000.0000	0.0000	0.0000	0.0000;
	188	1	4.15	0	0	0	69	0.9842592	74.29761	115	69	1.1	0.9	5000.0000	0.0000	0.0000	0.0000;
	189	1	2.08	0	0	0	69	0.9923729	77.291722	115	69	1.1	0.9	5000.0000	0.0000	0.0000	0.0000;
	190	1	29.62	0	0	0	68	1.0011113	97.575829	115	68	1.1	0.9	5000.0000	0.0000	0.0000	0.0000;
	191	1	29.62	0	0	0	68	0.9898361	91.585289	115	68	1.1	0.9	5000.0000	0.0000	0.0000	0.0000;
	192	1	44.43	0	0	0	68	0.996069	94.653378	115	68	1.1	0.9	5000.0000	0.0000	0.0000	0.0000;
	193	2	59.24	0	0	0	68	0.991569	94.60718	115	68	1.1	0.9	5000.0000	0.0000	0.0000	0.0000;
	194	2	20.53	0	0	0	70	1.0184778	80.559992	115	70	1.1	0.9	5000.0000	0.0000	0.0000	0.0000;
	195	1	6.84	0	0	0	70	1.0184304	80.548158	115	70	1.1	0.9	5000.0000	0.0000	0.0000	0.0000;
	196	1	6.84	0	0	0	70	1.0173483	80.464112	115	70	1.1	0.9	5000.0000	0.0000	0.0000	0.0000;
	197	1	14.4	0	0	0	66	1.0096106	93.02032	115	66	1.1	0.9	5000.0000	0.0000	0.0000	0.0000;
	198	1	14.4	0	0	0	66	0.9984966	90.853467	115	66	1.1	0.9	5000.0000	0.0000	0.0000	0.0000;
	199	2	14.4	0	0	0	66	1.0027071	91.127762	115	66	1.1	0.9	5000.0000	0.0000	0.0000	0.0000;
	200	1	21.6	0	0	0	66	1.0017195	91.825023	115	66	1.1	0.9	5000.0000	0.0000	0.0000	0.0000;
...
];

%% generator data
%	bus	Pg	Qg	Qmax	Qmin	Vg	mBase	status	Pmax	Pmin	Pc1	Pc2	Qc1min	Qc1max	Qc2min	Qc2max	ramp_agc	ramp_10	ramp_30	ramp_q	apf	mu_Pmax	mu_Pmin	mu_Qmax	mu_Qmin
mpc.gen = [
	6	2.744616	-0.209143	1.8	-1.5	1.02	100	1	2.8	1	0	0	0	0	0	0	0	5000	15000	0	0	0.0000	0.0000	0.0000	0.0000;
	6	2.744616	-0.209143	1.8	-1.5	1.02	100	1	2.8	1	0	0	0	0	0	0	0	5000	15000	0	0	0.0000	0.0000	0.0000	0.0000;
	6	2.94066	-0.209143	2	-1.7	1.02	100	1	3	1	0	0	0	0	0	0	0	5000	15000	0	0	0.0000	0.0000	0.0000	0.0000;
	6	2.94066	-0.209143	2	-1.7	1.02	100	1	3	1	0	0	0	0	0	0	0	5000	15000	0	0	0.0000	0.0000	0.0000	0.0000;
	15	7.841761	-1.256166	5.2	-4.4	1.02	100	1	8	7	0	0	0	0	0	0	0	5000	15000	0	0	0.0000	0.0000	0.0000	0.0000;
	15	7.841761	-1.256166	5.2	-4.4	1.02	100	1	8	7	0	0	0	0	0	0	0	5000	15000	0	0	0.0000	0.0000	0.0000	0.0000;
	17	0	0	11.7	-9.9	1.01	100	0	18.000001	10.5	0	0	0	0	0	0	0	101	303	0	0	0.0000	0.0000	0.0000	0.0000;
	17	11.4	-9.9	11.7	-9.9	1.01	100	1	18.000001	11.4	0	0	0	0	0	0	0	102.5	307.5	0	0	0.0000	0.0000	0.0000	0.0000;
	17	11	-9.9	11.7	-9.9	1.01	100	1	18.000001	11	0	0	0	0	0	0	0	100.5	301.5	0	0	0.0000	0.0000	0.0000	0.0000;
	17	11.2	-9.9	11.7	-9.9	1.01	100	1	18.000001	11.2	0	0	0	0	0	0	0	99.5	298.5	0	0	0.0000	0.0000	0.0000	0.0000;
	17	11.4	-9.9	11.7	-9.9	1.01	100	1	18.000001	11.4	0	0	0	0	0	0	0	76	228	0	0	0.0000	0.0000	0.0000	0.0000;
	17	10.7	-9.9	11.7	-9.9	1.01	100	1	18.000001	10.7	0	0	0	0	0	0	0	102.5	307.5	0	0	0.0000	0.0000	0.0000	0.0000;
	17	9	-9.9	11.7	-9.9	1.01	100	1	18.000001	9	0	0	0	0	0	0	0	102	306	0	0	0.0000	0.0000	0.0000	0.0000;
	17	29.800001	-23	27.200001	-23	1.01	100	1	41.800001	29.800001	0	0	0	0	0	0	0	246	738	0	0	0.0000	0.0000	0.0000	0.0000;
	17	0	0	27.200001	-23	1.01	100	0	41.800001	30.000001	0	0	0	0	0	0	0	250	750	0	0	0.0000	0.0000	0.0000	0.0000;
	17	0	0	27.200001	-23	1.01	100	0	41.800001	30.000001	0	0	0	0	0	0	0	252.5	757.5	0	0	0.0000	0.0000	0.0000	0.0000;
	17	30.000001	-23	27.200001	-23	1.01	100	1	41.800001	30.000001	0	0	0	0	0	0	0	243.5	730.5	0	0	0.0000	0.0000	0.0000	0.0000;
	17	183.000004	-30.697578	122.2	-103.400004	1.01	100	1	188	15.000001	0	0	0	0	0	0	0	79.8	239.4	0	0	0.0000	0.0000	0.0000	0.0000;
	17	183.000004	-30.697578	122.2	-103.400004	1.01	100	1	188	15.000001	0	0	0	0	0	0	0	76.2	228.6	0	0	0.0000	0.0000	0.0000	0.0000;
	18	15.898612	-8.8	10.4	-8.8	1.01	100	1	16	10	0	0	0	0	0	0	0	88	264	0	0	0.0000	0.0000	0.0000	0.0000;
	18	52.664155	-18.347043	34.5	-29.2	1.01	100	1	52.999997	37	0	0	0	0	0	0	0	235	705	0	0	0.0000	0.0000	0.0000	0.0000;
	18	52.664155	-18.347043	34.5	-29.2	1.01	100	1	52.999997	37	0	0	0	0	0	0	0	235	705	0	0	0.0000	0.0000	0.0000	0.0000;
	18	54.651493	-18.347043	35.800001	-30.3	1.01	100	1	55.000001	40.000001	0	0	0	0	0	0	0	275.5	826.5	0	0	0.0000	0.0000	0.0000	0.0000;
	18	0	0	35.800001	-30.3	1.01	100	0	55.000001	44.100001	0	0	0	0	0	0	0	343	1029	0	0	0.0000	0.0000	0.0000	0.0000;
	19	15.898612	-8.8	10.4	-8.8	1.02	100	1	16	10.6	0	0	0	0	0	0	0	79	237	0	0	0.0000	0.0000	0.0000	0.0000;
	19	0	0	251.600003	-212.899995	1.02	100	0	386.999989	40.000001	0	0	0	0	0	0	0	159.6	478.8	0	0	0.0000	0.0000	0.0000	0.0000;
	19	384.54771	-12.677054	251.600003	-212.899995	1.02	100	1	386.999989	30.000001	0	0	0	0	0	0	0	157.68	473.04	0	0	0.0000	0.0000	0.0000	0.0000;
	19	386.999989	-12.677054	251.600003	-212.899995	1.02	100	1	386.999989	40.000001	0	0	0	0	0	0	0	158.6	475.8	0	0	0.0000	0.0000	0.0000	0.0000;
	19	386.999989	-12.677054	251.600003	-212.899995	1.02	100	1	386.999989	40.000001	0	0	0	0	0	0	0	158.48	475.44	0	0	0.0000	0.0000	0.0000	0.0000;
	19	129.999995	-12.677054	9900	-9900	1.02	100	1	129.999995	129.999995	0	0	0	0	0	0	0	0	0	0	0	0.0000	0.0000	0.0000	0.0000;
	21	10.782421	7.2	7.2	-6.1	1.02	100	1	11	0.2	0	0	0	0	0	0	0	5000	15000	0	0	0.0000	0.0000	0.0000	0.0000;
	21	11.762641	7.8	7.8	-6.6	1.02	100	1	12	0.2	0	0	0	0	0	0	0	5000	15000	0	0	0.0000	0.0000	0.0000	0.0000;
	21	12.742861	8.5	8.5	-7.2	1.02	100	1	13	0.2	0	0	0	0	0	0	0	5000	15000	0	0	0.0000	0.0000	0.0000	0.0000;
	24	8.821981	4.911201	5.9	-5	1.02	100	1	9	3	0	0	0	0	0	0	0	5000	15000	0	0	0.0000	0.0000	0.0000	0.0000;
	24	8.821981	4.911201	5.9	-5	1.02	100	1	9	3	0	0	0	0	0	0	0	5000	15000	0	0	0.0000	0.0000	0.0000	0.0000;
	24	8.821981	4.911201	5.9	-5	1.02	100	1	9	3	0	0	0	0	0	0	0	5000	15000	0	0	0.0000	0.0000	0.0000	0.0000;
	24	8.821981	4.911201	5.9	-5	1.02	100	1	9	3	0	0	0	0	0	0	0	5000	15000	0	0	0.0000	0.0000	0.0000	0.0000;
	26	594.999981	37.359586	446.25001	-416.499996	1.02	100	1	594.999981	320.000005	0	0	0	0	0	0	0	900	2700	0	0	0.0000	0.0000	0.0000	0.0000;
	26	650	37.359586	487.5	-455.000019	1.02	100	1	650	320.000005	0	0	0	0	0	0	0	900	2700	0	0	0.0000	0.0000	0.0000	0.0000;
	27	121.823132	44.847983	91.949999	-85.820001	1.02	100	1	122.599995	41.999999	0	0	0	0	0	0	0	890	2670	0	0	0.0000	0.0000	0.0000	0.0000;
	28	0	0	47.174999	-44.029999	1.02	100	0	62.900001	34.999999	0	0	0	0	0	0	0	560	1680	0	0	0.0000	0.0000	0.0000	0.0000;
	29	111.2903	-7.886115	72.799999	-61.6	1.02	100	1	112	31.999999	0	0	0	0	0	0	0	42.52	127.56	0	0	0.0000	0.0000	0.0000	0.0000;
	30	4.07402	-1.636664	2.7	-2.3	1.02	100	1	4.1	0	0	0	0	0	0	0	0	0	0	0	0	0.0000	0.0000	0.0000	0.0000;
	30	55.048954	-1.636664	36.000001	-30.500001	1.02	100	1	55.400002	0	0	0	0	0	0	0	0	0	0	0	0	0.0000	0.0000	0.0000	0.0000;
	31	0.98022	-0.6	0.7	-0.6	1.02	100	1	1	0.2	0	0	0	0	0	0	0	5000	15000	0	0	0.0000	0.0000	0.0000	0.0000;
	31	0.98022	-0.6	0.7	-0.6	1.02	100	1	1	0.2	0	0	0	0	0	0	0	5000	15000	0	0	0.0000	0.0000	0.0000	0.0000;
	31	2.548572	-1.4	1.7	-1.4	1.02	100	1	2.6	0.9	0	0	0	0	0	0	0	5000	15000	0	0	0.0000	0.0000	0.0000	0.0000;
	31	2.548572	-1.4	1.7	-1.4	1.02	100	1	2.6	0.9	0	0	0	0	0	0	0	5000	15000	0	0	0.0000	0.0000	0.0000	0.0000;
	31	2.548572	-1.4	1.7	-1.4	1.02	100	1	2.6	2.3	0	0	0	0	0	0	0	5000	15000	0	0	0.0000	0.0000	0.0000	0.0000;
	31	24.113415	-3.042392	16	-13.500001	1.02	100	1	24.600001	6	0	0	0	0	0	0	0	5000	15000	0	0	0.0000	0.0000	0.0000	0.0000;
	31	24.113415	-3.042392	16	-13.500001	1.02	100	1	24.600001	6	0	0	0	0	0	0	0	5000	15000	0	0	0.0000	0.0000	0.0000	0.0000;
	32	147.000003	-32.940623	110.249996	-102.900004	1.02	100	1	147.000003	113	0	0	0	0	0	0	0	650	1950	0	0	0.0000	0.0000	0.0000	0.0000;
	33	56.241345	-9.887437	42.449999	-39.62	1.02	100	1	56.599998	44	0	0	0	0	0	0	0	540	1620	0	0	0.0000	0.0000	0.0000	0.0000;
	34	57.036275	14.665274	43.05	-40.180001	1.02	100	1	57.4	44.499999	0	0	0	0	0	0	0	500	1500	0	0	0.0000	0.0000	0.0000	0.0000;
	35	3.136704	2.1	2.1	-1.8	1.02	100	1	3.2	0	0	0	0	0	0	0	0	5000	15000	0	0	0.0000	0.0000	0.0000	0.0000;
	35	3.136704	2.1	2.1	-1.8	1.02	100	1	3.2	0	0	0	0	0	0	0	0	5000	15000	0	0	0.0000	0.0000	0.0000	0.0000;
	35	3.92088	2.6	2.6	-2.2	1.02	100	1	4	0	0	0	0	0	0	0	0	5000	15000	0	0	0.0000	0.0000	0.0000	0.0000;
	35	3.92088	2.6	2.6	-2.2	1.02	100	1	4	0	0	0	0	0	0	0	0	5000	15000	0	0	0.0000	0.0000	0.0000	0.0000;
	35	5.88132	3.9	3.9	-3.3	1.02	100	1	6	0	0	0	0	0	0	0	0	5000	15000	0	0	0.0000	0.0000	0.0000	0.0000;
	35	6.861541	4.6	4.6	-3.9	1.02	100	1	7	0	0	0	0	0	0	0	0	5000	15000	0	0	0.0000	0.0000	0.0000	0.0000;
	37	190.435088	23.531631	165.974998	-154.910004	1.02	100	1	221.300006	103.999996	0	0	0	0	0	0	0	1590	4770	0	0	0.0000	0.0000	0.0000	0.0000;
	38	99.863166	-12.516913	70.4	-55.299997	1.02	100	1	100.5	0	0	0	0	0	0	0	0	0	0	0	0	0.0000	0.0000	0.0000	0.0000;
	39	125.201583	-11.060338	88.200003	-69.300002	1.02	100	1	125.999999	0	0	0	0	0	0	0	0	0	0	0	0	0.0000	0.0000	0.0000	0.0000;
	41	65.28368	13.30934	49.274999	-45.989999	1.02	100	1	65.700001	40.599999	0	0	0	0	0	0	0	580	1740	0	0	0.0000	0.0000	0.0000	0.0000;
	52	16.097346	-0.083381	11.3	-8.9	1.02	100	1	16.2	0	0	0	0	0	0	0	0	0	0	0	0	0.0000	0.0000	0.0000	0.0000;
	53	37.262374	-8.453422	26.300001	-20.6	1.02	100	1	37.5	0	0	0	0	0	0	0	0	0	0	0	0	0.0000	0.0000	0.0000	0.0000;
	60	0.784176	0.6	0.6	-0.4	1.02	100	1	0.8	0.4	0	0	0	0	0	0	0	5000	15000	0	0	0.0000	0.0000	0.0000	0.0000;
	60	9.802201	3.362943	7	-5.5	1.02	100	1	10	4	0	0	0	0	0	0	0	5000	15000	0	0	0.0000	0.0000	0.0000	0.0000;
	63	0	0	66.149998	-61.739999	1.02	100	0	88.199997	60.000002	0	0	0	0	0	0	0	750	2250	0	0	0.0000	0.0000	0.0000	0.0000;
	63	653.643417	11.450057	490.275002	-457.590008	1.02	100	1	653.700018	315.00001	0	0	0	0	0	0	0	900	2700	0	0	0.0000	0.0000	0.0000	0.0000;
	69	0	0	17.200001	-13.500001	1.02	100	0	24.5	5	0	0	0	0	0	0	0	10	30	0	0	0.0000	0.0000	0.0000	0.0000;
	69	24.344754	-1.972762	17.200001	-13.500001	1.02	100	1	24.5	5	0	0	0	0	0	0	0	10	30	0	0	0.0000	0.0000	0.0000	0.0000;
	69	47.000274	-1.972762	33.1	-25.999999	1.02	100	1	47.299999	9	0	0	0	0	0	0	0	235	705	0	0	0.0000	0.0000	0.0000	0.0000;
	69	8	-1.972762	20	-20	1.02	100	0	10	8	0	0	0	0	0	0	0	0	0	0	0	0.0000	0.0000	0.0000	0.0000;
	79	0	0	0.7	-0.6	1.02	100	0	1	0.3	0	0	0	0	0	0	0	2	6	0	0	0.0000	0.0000	0.0000	0.0000;
	79	0	0	0.9	-0.7	1.02	100	0	1.3	0.4	0	0	0	0	0	0	0	2.6	7.8	0	0	0.0000	0.0000	0.0000	0.0000;
	79	0	0	1	-0.8	1.02	100	0	1.4	0.4	0	0	0	0	0	0	0	2.8	8.4	0	0	0.0000	0.0000	0.0000	0.0000;
	79	0	0	1	-0.8	1.02	100	0	1.4	0.4	0	0	0	0	0	0	0	2.8	8.4	0	0	0.0000	0.0000	0.0000	0.0000;
	79	0	0	1.8	-1.4	1.02	100	0	2.5	0.1	0	0	0	0	0	0	0	0.6	1.8	0	0	0.0000	0.0000	0.0000	0.0000;
	79	0	0	1.9	-1.5	1.02	100	0	2.7	0.8	0	0	0	0	0	0	0	5.4	16.2	0	0	0.0000	0.0000	0.0000	0.0000;
	79	0	0	1.9	-1.5	1.02	100	0	2.7	0.8	0	0	0	0	0	0	0	5.4	16.2	0	0	0.0000	0.0000	0.0000	0.0000;
	79	0	0	2.1	-1.7	1.02	100	0	3	0.1	0	0	0	0	0	0	0	0.8	2.4	0	0	0.0000	0.0000	0.0000	0.0000;
	79	0	0	2.1	-1.7	1.02	100	0	3	0.1	0	0	0	0	0	0	0	0.8	2.4	0	0	0.0000	0.0000	0.0000	0.0000;
	79	7.452475	-4.1	5.3	-4.1	1.02	100	1	7.5	4	0	0	0	0	0	0	0	37.5	112.5	0	0	0.0000	0.0000	0.0000	0.0000;
	79	46.702179	-8.824223	32.9	-25.9	1.02	100	1	47	1	0	0	0	0	0	0	0	233	699	0	0	0.0000	0.0000	0.0000	0.0000;
	79	0	0	109.300005	-85.900003	1.02	100	0	156.200004	44.999999	0	0	0	0	0	0	0	59.48	178.44	0	0	0.0000	0.0000	0.0000	0.0000;
	79	178.859413	-8.824223	125.999999	-99.000001	1.02	100	1	179.999995	110.000002	0	0	0	0	0	0	0	398.2	1194.6	0	0	0.0000	0.0000	0.0000	0.0000;
	79	178.859413	-8.824223	125.999999	-99.000001	1.02	100	1	179.999995	110.000002	0	0	0	0	0	0	0	390	1170	0	0	0.0000	0.0000	0.0000	0.0000;
	79	0	0	139.999998	-110.000002	1.02	100	0	200	64.999998	0	0	0	0	0	0	0	72.12	216.36	0	0	0.0000	0.0000	0.0000	0.0000;
	80	55.148321	-6.652479	38.9	-30.500001	1.02	100	1	55.500001	15.000001	0	0	0	0	0	0	0	0	0	0	0	0.0000	0.0000	0.0000	0.0000;
	81	5	1.054758	20	-20	1.0221	100	0	10	5	0	0	0	0	0	0	0	0	0	0	0	0.0000	0.0000	0.0000	0.0000;
	82	34.281385	-8.052556	24.2	-19	1.02	100	1	34.5	0	0	0	0	0	0	0	0	0	0	0	0	0.0000	0.0000	0.0000	0.0000;
	83	7.841761	-1.994335	5.6	-4.4	1.02	100	1	8	4	0	0	0	0	0	0	0	5000	15000	0	0	0.0000	0.0000	0.0000	0.0000;
	83	7.841761	-1.994335	5.6	-4.4	1.02	100	1	8	4	0	0	0	0	0	0	0	5000	15000	0	0	0.0000	0.0000	0.0000	0.0000;
	84	10.782421	-0.991179	7.7	-6.1	1.02	100	1	11	1	0	0	0	0	0	0	0	5000	15000	0	0	0.0000	0.0000	0.0000	0.0000;
	84	10.782421	-0.991179	7.7	-6.1	1.02	100	1	11	1	0	0	0	0	0	0	0	5000	15000	0	0	0.0000	0.0000	0.0000	0.0000;
	95	66.575444	-0.00175	50.25	-46.900001	1.02	100	1	67.000002	37	0	0	0	0	0	0	0	510	1530	0	0	0.0000	0.0000	0.0000	0.0000;
	116	47.397739	-18.961684	33.399999	-26.199999	1.02	100	1	47.7	41.999999	0	0	0	0	0	0	0	235	705	0	0	0.0000	0.0000	0.0000	0.0000;
	125	0	0	1.4	-1.1	1.02	100	0	2	0.1	0	0	0	0	0	0	0	4	12	0	0	0.0000	0.0000	0.0000	0.0000;
	125	0	0	76.574999	-71.469998	1.02	100	0	102.100003	75.999999	0	0	0	0	0	0	0	780	2340	0	0	0.0000	0.0000	0.0000	0.0000;
	127	708.878994	-63.215643	669.824982	-625.169992	1.02	100	1	893.099976	666.400003	0	0	0	0	0	0	0	1200	3600	0	0	0.0000	0.0000	0.0000	0.0000;
	128	610.109282	-34.765571	429.799986	-337.700009	1.02	100	1	613.999987	461.000013	0	0	0	0	0	0	0	15.106	45.318	0	0	0.0000	0.0000	0.0000	0.0000;
	150	0	0	0.7	-0.6	1.02	100	0	1	0.3	0	0	0	0	0	0	0	2	6	0	0	0.0000	0.0000	0.0000	0.0000;
	150	0	0	0.7	-0.6	1.02	100	0	1	0.3	0	0	0	0	0	0	0	2	6	0	0	0.0000	0.0000	0.0000	0.0000;
	150	0	0	12.6	-11.76	1.02	100	0	16.8	8.2	0	0	0	0	0	0	0	140	420	0	0	0.0000	0.0000	0.0000	0.0000;
	150	0	0	15.525	-14.489999	1.02	100	0	20.7	8.4	0	0	0	0	0	0	0	170	510	0	0	0.0000	0.0000	0.0000	0.0000;
	161	19.873267	3.915991	14	-11	1.02	100	1	20	0	0	0	0	0	0	0	0	0	0	0	0	0.0000	0.0000	0.0000	0.0000;
	178	0	0	77.025002	-71.890002	1.02	100	0	102.699995	44.999999	0	0	0	0	0	0	0	540	1620	0	0	0.0000	0.0000	0.0000	0.0000;
	193	0	0	214.199996	-199.919999	1.02	100	0	285.599995	89.999998	0	0	0	0	0	0	0	900	2700	0	0	0.0000	0.0000	0.0000	0.0000;
	194	19.873267	14	14	-11	1.02	100	1	20	0	0	0	0	0	0	0	0	200	600	0	0	0.0000	0.0000	0.0000	0.0000;
	199	0	0	5	-4	1.02	100	0	7.2	1	0	0	0	0	0	0	0	2.88	8.64	0	0	0.0000	0.0000	0.0000	0.0000;
	199	0	0	12.7	-10	1.02	100	0	18.2	2	0	0	0	0	0	0	0	10	30	0	0	0.0000	0.0000	0.0000	0.0000;
	212	0	0	0.6	-0.4	1.02	100	0	0.8	0.6	0	0	0	0	0	0	0	0	0	0	0	0.0000	0.0000	0.0000	0.0000;
	212	0	0	0.6	-0.4	1.02	100	0	0.8	0.6	0	0	0	0	0	0	0	0	0	0	0	0.0000	0.0000	0.0000	0.0000;
	212	0	0	0.6	-0.4	1.02	100	0	0.8	0.6	0	0	0	0	0	0	0	0	0	0	0	0.0000	0.0000	0.0000	0.0000;
	212	0	0	0.6	-0.4	1.02	100	0	0.8	0.6	0	0	0	0	0	0	0	0	0	0	0	0.0000	0.0000	0.0000	0.0000;
	212	0	0	0.6	-0.4	1.02	100	0	0.8	0.6	0	0	0	0	0	0	0	0	0	0	0	0.0000	0.0000	0.0000	0.0000;
	212	0	0	0.6	-0.4	1.02	100	0	0.8	0.6	0	0	0	0	0	0	0	0	0	0	0	0.0000	0.0000	0.0000	0.0000;
	212	0	0	0.6	-0.4	1.02	100	0	0.8	0.6	0	0	0	0	0	0	0	0	0	0	0	0.0000	0.0000	0.0000	0.0000;
	212	0	0	0.6	-0.4	1.02	100	0	0.8	0.6	0	0	0	0	0	0	0	0	0	0	0	0.0000	0.0000	0.0000	0.0000;
	212	0	0	1.1	-0.9	1.02	100	0	1.6	0.8	0	0	0	0	0	0	0	0	0	0	0	0.0000	0.0000	0.0000	0.0000;
	212	0	0	1.1	-0.9	1.02	100	0	1.6	0.8	0	0	0	0	0	0	0	0	0	0	0	0.0000	0.0000	0.0000	0.0000;
	212	0	0	1.1	-0.9	1.02	100	0	1.6	0.8	0	0	0	0	0	0	0	0	0	0	0	0.0000	0.0000	0.0000	0.0000;
	234	0	0	0.8	-0.6	1.02	100	0	1.1	0.5	0	0	0	0	0	0	0	2	6	0	0	0.0000	0.0000	0.0000	0.0000;
	234	0	0	49.649999	-46.340001	1.02	100	0	66.2	48.800001	0	0	0	0	0	0	0	510	1530	0	0	0.0000	0.0000	0.0000	0.0000;
	250	0.392088	0.3	0.3	-0.2	1.02	100	1	0.4	0.1	0	0	0	0	0	0	0	5000	15000	0	0	0.0000	0.0000	0.0000	0.0000;
	250	0	0	2.1	-1.7	1.02	100	0	3	0.4	0	0	0	0	0	0	0	0.0572	0.1716	0	0	0.0000	0.0000	0.0000	0.0000;
	250	0	0	8.8	-6.9	1.02	100	0	12.5	4	0	0	0	0	0	0	0	0.325	0.975	0	0	0.0000	0.0000	0.0000	0.0000;
	250	12.546818	9	9	-7	1.02	100	1	12.800001	0	0	0	0	0	0	0	0	5000	15000	0	0	0.0000	0.0000	0.0000	0.0000;
	250	12.546818	9	9	-7	1.02	100	1	12.800001	0	0	0	0	0	0	0	0	5000	15000	0	0	0.0000	0.0000	0.0000	0.0000;
	250	0	0	10.5	-8.3	1.02	100	0	15.000001	4	0	0	0	0	0	0	0	0.39	1.17	0	0	0.0000	0.0000	0.0000	0.0000;
	250	17.643961	12.6	12.6	-9.9	1.02	100	1	18.000001	0	0	0	0	0	0	0	0	5000	15000	0	0	0.0000	0.0000	0.0000	0.0000;
	250	0	0	17.900001	-14.1	1.02	100	0	25.600001	5	0	0	0	0	0	0	0	0.6656	1.9968	0	0	0.0000	0.0000	0.0000	0.0000;
	250	0	0	17.900001	-14.1	1.02	100	0	25.600001	5	0	0	0	0	0	0	0	0.6656	1.9968	0	0	0.0000	0.0000	0.0000	0.0000;
	250	0	0	17.900001	-14.1	1.02	100	0	25.600001	5	0	0	0	0	0	0	0	0.6656	1.9968	0	0	0.0000	0.0000	0.0000	0.0000;
	250	0	0	17.900001	-14.1	1.02	100	0	25.600001	5	0	0	0	0	0	0	0	0.6656	1.9968	0	0	0.0000	0.0000	0.0000	0.0000;
	284	24.841583	12.00477	17.5	-13.8	1.02	100	1	25	3	0	0	0	0	0	0	0	0	0	0	0	0.0000	0.0000	0.0000	0.0000;
	284	24.841583	12.00477	17.5	-13.8	1.02	100	1	25	3	0	0	0	0	0	0	0	0	0	0	0	0.0000	0.0000	0.0000	0.0000;
	317	59.520429	-0.357184	44.925001	-41.929999	1.02	100	1	59.899998	40.000001	0	0	0	0	0	0	0	490	1470	0	0	0.0000	0.0000	0.0000	0.0000;
	339	39.249703	21.100989	27.700001	-21.699999	1.02	100	1	39.500001	3.5	0	0	0	0	0	0	0	0	0	0	0	0.0000	0.0000	0.0000	0.0000;
	357	877.702904	-37.738255	618.300009	-485.79998	1.02	100	1	883.300018	661.999989	0	0	0	0	0	0	0	22.2014	66.6042	0	0	0.0000	0.0000	0.0000	0.0000;
	358	542.534351	-29.686269	407.175016	-380.029988	1.02	100	1	542.89999	225	0	0	0	0	0	0	0	900	2700	0	0	0.0000	0.0000	0.0000	0.0000;
	358	543.200016	-29.686269	407.399988	-380.240011	1.02	100	1	543.200016	225	0	0	0	0	0	0	0	900	2700	0	0	0.0000	0.0000	0.0000	0.0000;
	368	29.809901	6.418672	20.999999	-16.500001	1.02	100	1	30.000001	0.1	0	0	0	0	0	0	0	0	0	0	0	0.0000	0.0000	0.0000	0.0000;
	378	3.92088	1.87641	2.8	-2.2	1.02	100	1	4	2.8	0	0	0	0	0	0	0	5000	15000	0	0	0.0000	0.0000	0.0000	0.0000;
	378	3.92088	1.87641	2.8	-2.2	1.02	100	1	4	2.8	0	0	0	0	0	0	0	5000	15000	0	0	0.0000	0.0000	0.0000	0.0000;
	378	3.92088	1.87641	2.8	-2.2	1.02	100	1	4	2.8	0	0	0	0	0	0	0	5000	15000	0	0	0.0000	0.0000	0.0000	0.0000;
	381	0	0	0.8	-0.6	1.02	100	0	1.1	0.2	0	0	0	0	0	0	0	2.2	6.6	0	0	0.0000	0.0000	0.0000	0.0000;
	381	63.793194	1.546659	48.15	-44.940001	1.02	100	1	64.200002	47	0	0	0	0	0	0	0	540	1620	0	0	0.0000	0.0000	0.0000	0.0000;
	395	32.790887	-17.395757	23.100001	-18.2	1.02	100	1	33.000001	0.3	0	0	0	0	0	0	0	0	0	0	0	0.0000	0.0000	0.0000	0.0000;
	395	60.613459	-17.395757	42.699999	-33.6	1.02	100	1	61.000001	0.5	0	0	0	0	0	0	0	0	0	0	0	0.0000	0.0000	0.0000	0.0000;
	395	90.423363	-17.395757	63.700002	-50.099999	1.02	100	1	91.000003	0.7	0	0	0	0	0	0	0	0	0	0	0	0.0000	0.0000	0.0000	0.0000;
	395	136.131895	-17.395757	95.899999	-75.400001	1.02	100	1	137	1.1	0	0	0	0	0	0	0	0	0	0	0	0.0000	0.0000	0.0000	0.0000;
	399	73.531085	4.262559	51.800001	-40.700001	1.02	100	1	74.000001	0	0	0	0	0	0	0	0	0	0	0	0	0.0000	0.0000	0.0000	0.0000;
	405	25.485721	-3.762511	18.2	-14.300001	1.02	100	1	25.999999	1	0	0	0	0	0	0	0	5000	15000	0	0	0.0000	0.0000	0.0000	0.0000;
	406	14.703302	-1.371508	10.5	-8.3	1.02	100	1	15.000001	1	0	0	0	0	0	0	0	5000	15000	0	0	0.0000	0.0000	0.0000	0.0000;
	407	24.5055	-3.852525	17.5	-13.8	1.02	100	1	25	1	0	0	0	0	0	0	0	5000	15000	0	0	0.0000	0.0000	0.0000	0.0000;
	408	23.525281	-3.517215	16.8	-13.2	1.02	100	1	23.999999	1	0	0	0	0	0	0	0	5000	15000	0	0	0.0000	0.0000	0.0000	0.0000;
	409	20.584621	1.914681	14.7	-11.6	1.02	100	1	20.999999	1	0	0	0	0	0	0	0	5000	15000	0	0	0.0000	0.0000	0.0000	0.0000;
	463	1.274286	-0.163852	0.9	-0.7	1.02	100	1	1.3	0.2	0	0	0	0	0	0	0	5000	15000	0	0	0.0000	0.0000	0.0000	0.0000;
	463	6.861541	-0.163852	4.9	-3.9	1.02	100	1	7	1	0	0	0	0	0	0	0	5000	15000	0	0	0.0000	0.0000	0.0000	0.0000;
	463	6.861541	-0.163852	4.9	-3.9	1.02	100	1	7	1	0	0	0	0	0	0	0	5000	15000	0	0	0.0000	0.0000	0.0000	0.0000;
	463	6.861541	-0.163852	4.9	-3.9	1.02	100	1	7	1	0	0	0	0	0	0	0	5000	15000	0	0	0.0000	0.0000	0.0000	0.0000;
	463	6.861541	-0.163852	4.9	-3.9	1.02	100	1	7	1	0	0	0	0	0	0	0	5000	15000	0	0	0.0000	0.0000	0.0000	0.0000;
	463	6.861541	-0.163852	4.9	-3.9	1.02	100	1	7	1	0	0	0	0	0	0	0	5000	15000	0	0	0.0000	0.0000	0.0000	0.0000;
	469	14.308752	5.475864	10.1	-7.9	1.02	100	1	14.399999	2	0	0	0	0	0	0	0	0	0	0	0	0.0000	0.0000	0.0000	0.0000;
	474	8.821981	6.3	6.3	-5	1.02	100	1	9	4	0	0	0	0	0	0	0	5000	15000	0	0	0.0000	0.0000	0.0000	0.0000;
	474	46.070346	19.382879	32.9	-25.9	1.02	100	1	47	8	0	0	0	0	0	0	0	5000	15000	0	0	0.0000	0.0000	0.0000	0.0000;
	492	0	0	29.499999	-23.199999	1.02	100	0	42.1	2	0	0	0	0	0	0	0	15.6	46.8	0	0	0.0000	0.0000	0.0000	0.0000;
	508	0	0	80.400002	-75.040001	1.02	100	0	107.200003	56	0	0	0	0	0	0	0	300	900	0	0	0.0000	0.0000	0.0000	0.0000;
	508	338.333488	-22.136131	254.099989	-237.159991	1.02	100	1	338.800001	100.999999	0	0	0	0	0	0	0	300	900	0	0	0.0000	0.0000	0.0000	0.0000;
	526	17.643961	2.042538	12.6	-9.9	1.02	100	1	18.000001	1	0	0	0	0	0	0	0	5000	15000	0	0	0.0000	0.0000	0.0000	0.0000;
	535	41.634494	-23	29.300001	-23	1.02	100	1	41.9	5	0	0	0	0	0	0	0	200	600	0	0	0.0000	0.0000	0.0000	0.0000;
	535	769.999981	-65.95515	577.50001	-538.999987	1.02	100	1	769.999981	385.99999	0	0	0	0	0	0	0	900	2700	0	0	0.0000	0.0000	0.0000	0.0000;
	546	46.205348	32.600001	32.600001	-25.600001	1.02	100	1	46.5	5	0	0	0	0	0	0	0	219	657	0	0	0.0000	0.0000	0.0000	0.0000;
	547	0	0	0.1	-0.1	1.02	100	0	0.2	0.1	0	0	0	0	0	0	0	0.5	1.5	0	0	0.0000	0.0000	0.0000	0.0000;
	547	0	0	0.3	-0.2	1.02	100	0	0.4	0.3	0	0	0	0	0	0	0	1	3	0	0	0.0000	0.0000	0.0000	0.0000;
	547	0	0	0.6	-0.4	1.02	100	0	0.8	0.2	0	0	0	0	0	0	0	2	6	0	0	0.0000	0.0000	0.0000	0.0000;
	547	0	0	0.7	-0.6	1.02	100	0	1	0.1	0	0	0	0	0	0	0	2	6	0	0	0.0000	0.0000	0.0000	0.0000;
	547	0	0	0.7	-0.6	1.02	100	0	1	0.3	0	0	0	0	0	0	0	2	6	0	0	0.0000	0.0000	0.0000	0.0000;
	547	0	0	0.7	-0.6	1.02	100	0	1	0.2	0	0	0	0	0	0	0	2	6	0	0	0.0000	0.0000	0.0000	0.0000;
	547	0	0	1.1	-0.8	1.02	100	0	1.5	0.1	0	0	0	0	0	0	0	3	9	0	0	0.0000	0.0000	0.0000	0.0000;
	547	0	0	1.1	-0.8	1.02	100	0	1.5	0.1	0	0	0	0	0	0	0	3	9	0	0	0.0000	0.0000	0.0000	0.0000;
	547	0	0	1.1	-0.8	1.02	100	0	1.5	0.3	0	0	0	0	0	0	0	3	9	0	0	0.0000	0.0000	0.0000	0.0000;
	547	0	0	1.4	-1.1	1.02	100	0	2	0.3	0	0	0	0	0	0	0	4	12	0	0	0.0000	0.0000	0.0000	0.0000;
	547	0	0	1.4	-1.1	1.02	100	0	2	0.3	0	0	0	0	0	0	0	4	12	0	0	0.0000	0.0000	0.0000	0.0000;
	547	0	0	1.8	-1.4	1.02	100	0	2.5	0.3	0	0	0	0	0	0	0	5	15	0	0	0.0000	0.0000	0.0000	0.0000;
	552	15.898612	-8.8	11.2	-8.8	1.01	100	1	16	10.6	0	0	0	0	0	0	0	83	249	0	0	0.0000	0.0000	0.0000	0.0000;
	552	0	0	37.099999	-29.2	1.01	100	0	52.999997	37	0	0	0	0	0	0	0	233.5	700.5	0	0	0.0000	0.0000	0.0000	0.0000;
	552	0	0	37.099999	-29.2	1.01	100	0	52.999997	37	0	0	0	0	0	0	0	235.5	706.5	0	0	0.0000	0.0000	0.0000	0.0000;
	552	186.808717	-99.000371	131.599998	-103.400004	1.01	100	1	188	15.000001	0	0	0	0	0	0	0	75.68	227.04	0	0	0.0000	0.0000	0.0000	0.0000;
	552	186.808717	-99.000371	131.599998	-103.400004	1.01	100	1	188	15.000001	0	0	0	0	0	0	0	77.88	233.64	0	0	0.0000	0.0000	0.0000	0.0000;
	554	229.999995	-199.677372	261.675	-244.230008	1.01	100	1	348.899984	229.999995	0	0	0	0	0	0	0	600	1800	0	0	0.0000	0.0000	0.0000	0.0000;
	556	528.000021	364.368725	396.000004	-369.60001	1.02	100	1	528.000021	202.999997	0	0	0	0	0	0	0	900	2700	0	0	0.0000	0.0000	0.0000	0.0000;
	557	41.634494	6.226598	29.300001	-23	1.02	100	1	41.9	18.6	0	0	0	0	0	0	0	227.5	682.5	0	0	0.0000	0.0000	0.0000	0.0000;
	557	41.634494	6.226598	29.300001	-23	1.02	100	1	41.9	18.6	0	0	0	0	0	0	0	224	672	0	0	0.0000	0.0000	0.0000	0.0000;
	557	41.634494	6.226598	29.300001	-23	1.02	100	1	41.9	18.6	0	0	0	0	0	0	0	233	699	0	0	0.0000	0.0000	0.0000	0.0000;
	557	41.634494	6.226598	29.300001	-23	1.02	100	1	41.9	18.6	0	0	0	0	0	0	0	226	678	0	0	0.0000	0.0000	0.0000	0.0000;
	557	41.634494	6.226598	29.300001	-23	1.02	100	1	41.9	18.6	0	0	0	0	0	0	0	229	687	0	0	0.0000	0.0000	0.0000	0.0000;
	557	41.634494	6.226598	29.300001	-23	1.02	100	1	41.9	18.6	0	0	0	0	0	0	0	235	705	0	0	0.0000	0.0000	0.0000	0.0000;
...
];

%% branch data
%	fbus	tbus	r	x	b	rateA	rateB	rateC	ratio	angle	status	angmin	angmax	Pf	Qf	Pt	Qt	mu_Sf	mu_St	mu_angmin	mu_angmax
mpc.branch = [
	142	1	0.03889	0.16081	0.02663	167	556	210	0	0	1	0	0	56.8500	-6.4900	-55.6100	8.8900	0.0000	0.0000	0.0000	0.0000;
	1	199	0.00254	0.01051	0.00174	167	556	210	0	0	1	0	0	17.8900	-0.1400	-17.8800	0.0000	0.0000	0.0000	0.0000	0.0000;
	1	228	0.01207	0.04989	0.00826	167	556	210	0	0	1	0	0	45.3500	-5.1200	-45.1000	5.3200	0.0000	0.0000	0.0000	0.0000;
	1	228	0.01336	0.05524	0.00915	167	556	210	0	0	1	0	0	40.9600	-4.7000	-40.7400	4.7200	0.0000	0.0000	0.0000	0.0000;
	1	242	0.00663	0.02741	0.00454	167	556	210	0	0	1	0	0	44.8800	-9.9400	-44.7500	10.0600	0.0000	0.0000	0.0000	0.0000;
	881	1	0.00926	0.0383	0.00634	167	556	210	0	0	1	0	0	24.5100	-9.8700	-24.4400	9.5000	0.0000	0.0000	0.0000	0.0000;
	882	1	0.00917	0.03791	0.00628	167	556	210	0	0	1	0	0	24.7500	-9.9700	-24.6800	9.6000	0.0000	0.0000	0.0000	0.0000;
	883	1	0.00543	0.02247	0.00372	167	556	210	0	0	1	0	0	24.4900	-8.5400	-24.4600	8.3100	0.0000	0.0000	0.0000	0.0000;
	1	1402	0.0028	0.01156	0.00192	116	556	145	0	0	1	0	0	73.7700	-15.9200	-73.6100	16.3800	0.0000	0.0000	0.0000	0.0000;
	1	1402	0.0028	0.01156	0.00192	116	556	145	0	0	1	0	0	73.7700	-15.9200	-73.6100	16.3800	0.0000	0.0000	0.0000	0.0000;
	1	1403	0.00276	0.01141	0.00189	167	556	210	0	0	1	0	0	74.1200	-8.9500	-73.9600	9.3900	0.0000	0.0000	0.0000	0.0000;
	1	1404	0.00277	0.01146	0.0019	167	556	210	0	0	1	0	0	74.0400	-8.9300	-73.8900	9.3800	0.0000	0.0000	0.0000	0.0000;
	1	1405	0.00278	0.01149	0.0019	167	556	210	0	0	1	0	0	18.2600	-0.2700	-18.2500	0.1200	0.0000	0.0000	0.0000	0.0000;
	1	1422	0.0019	0.00785	0.0013	167	556	210	0	0	1	0	0	25.3300	-0.1400	-25.3200	0.0500	0.0000	0.0000	0.0000	0.0000;
	1	1550	0.02427	0.10034	0.01662	116	556	145	0	0	1	0	0	-70.1700	8.7000	71.3800	-5.3900	0.0000	0.0000	0.0000	0.0000;
	1	1550	0.02427	0.10034	0.01662	116	556	145	0	0	1	0	0	-70.1700	8.7000	71.3800	-5.3900	0.0000	0.0000	0.0000	0.0000;
	1	1551	0.00477	0.01973	0.00327	556	556	556	0	0	1	0	0	-159.5800	7.7500	160.7900	-3.0800	0.0000	0.0000	0.0000	0.0000;
	1	1551	0.00437	0.01805	0.00299	556	556	556	0	0	1	0	0	-174.4200	8.5600	175.7500	-3.3900	0.0000	0.0000	0.0000	0.0000;
	777	2	0.04083	0.09281	0.00181	96	250	123	0	0	1	0	0	1.5400	-0.1800	-1.5400	0.0000	0.0000	0.0000	0.0000	0.0000;
	794	3	0.00164	0.00676	0.00112	167	556	210	0	0	1	0	0	3.4200	-0.1100	-3.4200	0.0000	0.0000	0.0000	0.0000	0.0000;
	4	193	0.00102	0.00421	0.0007	167	556	210	0	0	1	0	0	25.0300	-0.0500	-25.0300	0.0100	0.0000	0.0000	0.0000	0.0000;
	4	193	0.00105	0.00435	0.00072	167	556	210	0	0	1	0	0	24.2300	-0.0300	-24.2300	-0.0100	0.0000	0.0000	0.0000	0.0000;
	4	193	0.00103	0.00425	0.0007	167	556	210	0	0	1	0	0	24.8000	-0.0600	-24.7900	0.0100	0.0000	0.0000	0.0000	0.0000;
	4	449	0.00637	0.02634	0.00436	167	556	210	0	0	1	0	0	12.9400	-1.8200	-12.9300	1.4400	0.0000	0.0000	0.0000	0.0000;
	4	1527	0.00495	0.0211	0.0027	167	556	210	0	0	1	0	0	-80.5200	0.9800	80.8500	0.1400	0.0000	0.0000	0.0000	0.0000;
	4	1527	0.00495	0.0211	0.0027	167	556	210	0	0	1	0	0	-80.5200	0.9800	80.8500	0.1400	0.0000	0.0000	0.0000	0.0000;
	990	5	5e-05	0.00019	3e-05	167	556	210	0	0	1	0	0	3.4200	-0.0000	-3.4200	0.0000	0.0000	0.0000	0.0000	0.0000;
	635	6	0.00361	0.01494	0.00247	167	556	210	0	0	1	0	0	-7.9500	0.5900	7.9500	-0.8400	0.0000	0.0000	0.0000	0.0000;
	698	7	0.00203	0.00841	0.00139	167	556	210	0	0	1	0	0	1.1800	-0.1200	-1.1800	-0.0200	0.0000	0.0000	0.0000	0.0000;
	699	7	0.00203	0.00839	0.00139	167	556	210	0	0	1	0	0	5.6600	-0.1600	-5.6600	0.0200	0.0000	0.0000	0.0000	0.0000;
	676	8	0.00211	0.00871	0.00144	167	556	210	0	0	1	0	0	-10.6600	2.3000	10.6600	-2.4400	0.0000	0.0000	0.0000	0.0000;
	677	8	0.00211	0.00873	0.00145	167	556	210	0	0	1	0	0	17.5100	-2.5600	-17.5000	2.4400	0.0000	0.0000	0.0000	0.0000;
	9	524	0.01092	0.04516	0.00748	556	556	556	0	0	1	0	0	6.5200	9.1200	-6.5100	-9.8300	0.0000	0.0000	0.0000	0.0000;
	649	9	0.01472	0.06087	0.01008	556	556	556	0	0	1	0	0	-19.9000	-10.1100	19.9700	9.3800	0.0000	0.0000	0.0000	0.0000;
	649	9	0.01472	0.06087	0.01008	556	556	556	0	0	1	0	0	-19.9000	-10.1100	19.9700	9.3800	0.0000	0.0000	0.0000	0.0000;
	848	9	0.001	0.07	0	750	750	750	0.975	0	1	0	0	200.3700	59.6100	-199.9700	-31.6500	0.0000	0.0000	0.0000	0.0000;
	9	851	0.00323	0.01336	0.00221	240	556	265	0	0	1	0	0	116.7900	3.7700	-116.3600	-2.2200	0.0000	0.0000	0.0000	0.0000;
	10	450	0.00418	0.01729	0.00286	167	556	210	0	0	1	0	0	-14.8100	0.0000	14.8200	-0.2400	0.0000	0.0000	0.0000	0.0000;
	11	489	0.00196	0.00812	0.00134	167	556	210	0	0	1	0	0	11.4800	-10.6100	-11.4800	10.4900	0.0000	0.0000	0.0000	0.0000;
	795	11	0.0004	0.00165	0.00027	167	556	210	0	0	1	0	0	18.3300	-10.6300	-18.3300	10.6100	0.0000	0.0000	0.0000	0.0000;
	872	12	5e-05	0.00019	3e-05	167	556	210	0	0	1	0	0	3.4200	-0.0000	-3.4200	0.0000	0.0000	0.0000	0.0000	0.0000;
	13	196	0.00156	0.00645	0.00107	167	556	210	0	0	1	0	0	-9.1000	-5.9800	9.1000	5.8800	0.0000	0.0000	0.0000	0.0000;
	864	13	0.00811	0.03354	0.00555	167	556	210	0	0	1	0	0	-2.3600	-6.5800	2.3700	6.0200	0.0000	0.0000	0.0000	0.0000;
	865	13	0.00813	0.03361	0.00557	167	556	210	0	0	1	0	0	-2.1500	-6.5000	2.1500	5.9400	0.0000	0.0000	0.0000	0.0000;
	13	1442	0.00156	0.00646	0.00107	167	556	210	0	0	1	0	0	-9.1100	-5.9800	9.1100	5.8800	0.0000	0.0000	0.0000	0.0000;
	14	460	0.00143	0.0059	0.00098	167	556	210	0	0	1	0	0	2.0800	-0.1000	-2.0800	0.0000	0.0000	0.0000	0.0000	0.0000;
	1017	14	0.00284	0.01174	0.00194	167	556	210	0	0	1	0	0	6.2300	-0.2900	-6.2300	0.1000	0.0000	0.0000	0.0000	0.0000;
	59	15	0.03648	0.15084	0.02498	167	556	210	0	0	1	0	0	-26.6100	5.8000	26.8700	-7.3000	0.0000	0.0000	0.0000	0.0000;
	15	402	0.0021	0.0087	0.00144	167	556	210	0	0	1	0	0	-15.3400	4.7900	15.3500	-4.9200	0.0000	0.0000	0.0000	0.0000;
	16	391	0.02118	0.08756	0.0145	167	556	210	0	0	1	0	0	38.6800	-8.8200	-38.3600	8.6600	0.0000	0.0000	0.0000	0.0000;
	1030	16	0.00835	0.03453	0.00572	167	556	210	0	0	1	0	0	66.0600	-13.5300	-65.6900	14.4700	0.0000	0.0000	0.0000	0.0000;
	1050	16	0.02493	0.1031	0.01707	167	556	210	0	0	1	0	0	81.1300	-16.1800	-79.4700	21.2700	0.0000	0.0000	0.0000	0.0000;
	1051	16	0.00207	0.00857	0.00142	167	556	210	0	0	1	0	0	-62.1700	18.9300	62.2500	-18.7200	0.0000	0.0000	0.0000	0.0000;
	16	1394	0.02598	0.10743	0.01779	167	556	210	0	0	1	0	0	33.8500	-8.2000	-33.5500	7.6300	0.0000	0.0000	0.0000	0.0000;
	17	628	0.0017	0.0085	0.064	300	300	330	0	0	1	0	0	155.6200	-83.0000	-155.1100	78.9900	0.0000	0.0000	0.0000	0.0000;
	17	628	0.0017	0.0085	0.064	300	300	330	0	0	1	0	0	155.6200	-83.0000	-155.1100	78.9900	0.0000	0.0000	0.0000	0.0000;
	17	1467	0.00302	0.10864	0	500	500	500	1	0	1	0	0	67.3700	-0.4000	-67.2300	5.2300	0.0000	0.0000	0.0000	0.0000;
	17	1467	0.00302	0.10864	0	500	500	500	1	0	1	0	0	67.3700	-0.4000	-67.2300	5.2300	0.0000	0.0000	0.0000	0.0000;
	18	561	0.04007	0.09109	0.00178	250	250	250	0	0	1	0	0	109.8600	-36.4900	-104.6000	48.2700	0.0000	0.0000	0.0000	0.0000;
	18	583	0.01009	0.02294	0.00045	200	250	200	0	0	1	0	0	62.8600	-11.2900	-62.4500	12.1600	0.0000	0.0000	0.0000	0.0000;
	18	585	0.00802	0.01823	0.00036	250	250	250	0	0	1	0	0	96.9800	-19.1700	-96.2200	20.8800	0.0000	0.0000	0.0000	0.0000;
	18	1494	0.00357	0.00812	0.00016	250	250	250	0	0	1	0	0	-41.9200	0.9500	41.9800	-0.8200	0.0000	0.0000	0.0000	0.0000;
	18	1494	0.0032	0.00727	0.00014	250	250	250	0	0	1	0	0	-46.8200	1.0800	46.8800	-0.9400	0.0000	0.0000	0.0000	0.0000;
	18	1494	0.0032	0.00727	0.00014	250	250	250	0	0	1	0	0	-46.8200	1.0800	46.8800	-0.9400	0.0000	0.0000	0.0000	0.0000;
	19	1538	0.0038	0.01572	0.0026	556	556	556	0	0	1	0	0	245.4200	-11.9000	-243.2100	20.7500	0.0000	0.0000	0.0000	0.0000;
	19	1538	0.0038	0.01572	0.0026	556	556	556	0	0	1	0	0	245.4200	-11.9000	-243.2100	20.7500	0.0000	0.0000	0.0000	0.0000;
	19	1538	0.0038	0.01572	0.0026	556	556	556	0	0	1	0	0	245.4200	-11.9000	-243.2100	20.7500	0.0000	0.0000	0.0000	0.0000;
	19	1538	0.0038	0.01572	0.0026	556	556	556	0	0	1	0	0	245.4200	-11.9000	-243.2100	20.7500	0.0000	0.0000	0.0000	0.0000;
	19	1538	0.0038	0.01572	0.0026	556	556	556	0	0	1	0	0	245.4200	-11.9000	-243.2100	20.7500	0.0000	0.0000	0.0000	0.0000;
	1004	20	0.00062	0.00256	0.00042	167	556	210	0	0	1	0	0	34.4900	9.5200	-34.4800	-9.5300	0.0000	0.0000	0.0000	0.0000;
	1008	20	0.01418	0.05866	0.00971	167	556	210	0	0	1	0	0	-54.7300	3.2600	55.1500	-2.5300	0.0000	0.0000	0.0000	0.0000;
	1020	20	0.00918	0.03796	0.00629	167	556	210	0	0	1	0	0	35.7300	-13.0200	-35.6000	12.9000	0.0000	0.0000	0.0000	0.0000;
	1195	20	0.00943	0.03899	0.00646	167	556	210	0	0	1	0	0	-6.6200	0.1900	6.6300	-0.8400	0.0000	0.0000	0.0000	0.0000;
	21	403	0.005	0.02069	0.00343	167	556	210	0	0	1	0	0	23.8100	-6.9100	-23.7800	6.6700	0.0000	0.0000	0.0000	0.0000;
	21	406	0.02031	0.06988	0.00859	116	556	145	0	0	1	0	0	-24.6800	4.4800	24.8000	-4.9400	0.0000	0.0000	0.0000	0.0000;
	1004	21	0.0004	0.00163	0.00027	167	556	210	0	0	1	0	0	-0.5200	-14.0000	0.5200	13.9700	0.0000	0.0000	0.0000	0.0000;
	1005	21	0.00536	0.02218	0.00367	167	556	210	0	0	1	0	0	29.3500	-14.1000	-29.3000	13.9400	0.0000	0.0000	0.0000	0.0000;
	1009	21	0.01417	0.05861	0.00971	167	556	210	0	0	1	0	0	-56.1800	2.8000	56.6200	-1.9900	0.0000	0.0000	0.0000	0.0000;
	1204	22	0.02827	0.06426	0.00126	96	250	123	0	0	1	0	0	1.5400	-0.1300	-1.5400	0.0000	0.0000	0.0000	0.0000	0.0000;
	751	23	0.03122	0.1291	0.02138	167	556	210	0	0	1	0	0	-37.2300	0.3300	37.6600	-0.7400	0.0000	0.0000	0.0000	0.0000;
	1193	23	0.00673	0.02783	0.00461	167	556	210	0	0	1	0	0	65.3500	-7.6400	-65.0700	8.3200	0.0000	0.0000	0.0000	0.0000;
	1194	23	0.00672	0.0278	0.0046	167	556	210	0	0	1	0	0	65.1600	-7.5700	-64.8800	8.2500	0.0000	0.0000	0.0000	0.0000;
	1208	23	0.01755	0.07259	0.01202	167	556	210	0	0	1	0	0	-39.0300	2.4300	39.2900	-2.5800	0.0000	0.0000	0.0000	0.0000;
	1214	23	0.00381	0.01575	0.00261	167	556	210	0	0	1	0	0	-42.5400	13.2900	42.6200	-13.2500	0.0000	0.0000	0.0000	0.0000;
	908	24	0.00179	0.00742	0.00123	167	556	210	0	0	1	0	0	-18.4000	-10.5600	18.4100	10.4600	0.0000	0.0000	0.0000	0.0000;
	913	24	0.02737	0.11317	0.01874	167	556	210	0	0	1	0	0	-6.7800	0.2600	6.7900	-2.1600	0.0000	0.0000	0.0000	0.0000;
	914	24	0.03784	0.15647	0.02591	167	556	210	0	0	1	0	0	-4.8500	-0.4200	4.8600	-2.2400	0.0000	0.0000	0.0000	0.0000;
	1100	24	0.02855	0.11804	0.01955	167	556	210	0	0	1	0	0	65.9800	-15.3100	-64.7200	18.4600	0.0000	0.0000	0.0000	0.0000;
	1102	24	0.02496	0.10319	0.01709	167	556	210	0	0	1	0	0	-48.4700	5.5200	49.0500	-4.8800	0.0000	0.0000	0.0000	0.0000;
	25	83	0.0105	0.04341	0.00719	167	556	210	0	0	1	0	0	-2.0800	0.0000	2.0800	-0.7500	0.0000	0.0000	0.0000	0.0000;
	26	557	1e-05	0.00019	0.00501	1216	2454	1804	0	0	1	0	0	373.0300	7.2900	-373.0100	-7.5600	0.0000	0.0000	0.0000	0.0000;
	26	557	1e-05	0.00018	0.00468	1216	2454	1804	0	0	1	0	0	393.7100	6.5800	-393.6900	-6.8000	0.0000	0.0000	0.0000	0.0000;
	26	1468	0.00124	0.0559	0	1347	1347	1347	1	0	1	0	0	478.2600	60.8500	-475.4900	64.0400	0.0000	0.0000	0.0000	0.0000;
	1068	27	7e-05	0.0003	5e-05	167	556	210	0	0	1	0	0	-55.8400	-31.8400	55.8400	31.8500	0.0000	0.0000	0.0000	0.0000;
	1070	27	0.00033	0.00136	0.00022	167	556	210	0	0	1	0	0	-57.6100	-12.9700	57.6200	13.0000	0.0000	0.0000	0.0000	0.0000;
	1286	28	0.0005	0.00207	0.00035	116	556	145	0	0	1	0	0	-35.2900	7.4600	35.3000	-7.4700	0.0000	0.0000	0.0000	0.0000;
	1287	28	0.0005	0.00205	0.00034	116	556	145	0	0	1	0	0	37.3800	-7.4800	-37.3700	7.4700	0.0000	0.0000	0.0000	0.0000;
	124	29	0.03314	0.13704	0.02269	167	556	210	0	0	1	0	0	-38.5600	8.4100	39.0700	-8.6800	0.0000	0.0000	0.0000	0.0000;
	29	152	0.00852	0.03523	0.00583	167	556	210	0	0	1	0	0	-23.5700	6.6200	23.6200	-7.0200	0.0000	0.0000	0.0000	0.0000;
	212	29	0.01428	0.05907	0.00978	167	556	210	0	0	1	0	0	-36.9800	-2.9500	37.1700	2.7300	0.0000	0.0000	0.0000	0.0000;
	896	29	0.02749	0.11366	0.01882	167	556	210	0	0	1	0	0	-41.4300	8.5800	41.9100	-8.5500	0.0000	0.0000	0.0000	0.0000;
	30	55	0.02366	0.09785	0.0162	167	556	210	0	0	1	0	0	54.8900	-9.7500	-54.1900	10.9800	0.0000	0.0000	0.0000	0.0000;
	30	131	0.00843	0.03485	0.00577	167	556	210	0	0	1	0	0	-4.1300	6.4800	4.1300	-7.0500	0.0000	0.0000	0.0000	0.0000;
	32	31	0.0006	0.0027	0.00044	135	556	175	0	0	1	0	0	10.6400	-2.3900	-10.6400	2.3400	0.0000	0.0000	0.0000	0.0000;
	680	31	0.00125	0.00518	0.00086	167	556	210	0	0	1	0	0	-65.0000	13.9600	65.0500	-13.8300	0.0000	0.0000	0.0000	0.0000;
	32	84	0.0108	0.0428	0.0055	120	556	120	0	0	1	0	0	4.7700	-1.4800	-4.7700	0.9200	0.0000	0.0000	0.0000	0.0000;
	32	474	0.00565	0.02337	0.00387	167	556	210	0	0	1	0	0	77.5900	-18.2100	-77.2500	19.2300	0.0000	0.0000	0.0000	0.0000;
	32	678	0.006	0.027	0.0044	167	556	210	0	0	1	0	0	50.5800	-10.8600	-50.4200	11.1000	0.0000	0.0000	0.0000	0.0000;
	33	140	0.00862	0.03565	0.0059	167	556	210	0	0	1	0	0	84.9500	-13.8500	-84.3300	15.7700	0.0000	0.0000	0.0000	0.0000;
	33	1469	0.01066	0.04408	0.0073	167	556	210	0	0	1	0	0	-33.7600	3.9600	33.8700	-4.2300	0.0000	0.0000	0.0000	0.0000;
	1178	34	0.00098	0.00404	0.00067	167	556	210	0	0	1	0	0	-33.6200	-5.7800	33.6300	5.7600	0.0000	0.0000	0.0000	0.0000;
	1179	34	0.00097	0.004	0.00066	167	556	210	0	0	1	0	0	-15.0500	-8.9600	15.0500	8.9100	0.0000	0.0000	0.0000	0.0000;
	35	36	0.00018	0.00076	0.00013	175	563	175	0	0	1	0	0	-71.5000	32.2400	71.5200	-32.2100	0.0000	0.0000	0.0000	0.0000;
	35	36	0.00018	0.00076	0.00013	175	563	175	0	0	1	0	0	-71.5000	32.2400	71.5200	-32.2100	0.0000	0.0000	0.0000	0.0000;
	35	191	0.01727	0.07139	0.01182	167	556	210	0	0	1	0	0	35.3300	4.3600	-35.1100	-4.6200	0.0000	0.0000	0.0000	0.0000;
	35	485	0.01865	0.07712	0.01277	116	556	145	0	0	1	0	0	49.6500	-25.4800	-49.0700	26.5700	0.0000	0.0000	0.0000	0.0000;
	35	485	0.01865	0.07712	0.01277	116	556	145	0	0	1	0	0	49.6500	-25.4800	-49.0700	26.5700	0.0000	0.0000	0.0000	0.0000;
	36	190	0.02914	0.1205	0.01995	167	556	210	0	0	1	0	0	-61.9200	14.8900	63.1100	-11.9500	0.0000	0.0000	0.0000	0.0000;
	36	192	0.00793	0.03281	0.00543	175	556	175	0	0	1	0	0	-78.7400	29.1000	79.3000	-27.3200	0.0000	0.0000	0.0000	0.0000;
	36	192	0.00793	0.03281	0.00543	175	556	175	0	0	1	0	0	-78.7400	29.1000	79.3000	-27.3200	0.0000	0.0000	0.0000	0.0000;
	490	36	0.0375	0.24	0.033	116	563	145	0	0	1	0	0	-40.4700	9.5400	41.1300	-8.6700	0.0000	0.0000	0.0000	0.0000;
	37	270	0.00261	0.01077	0.00178	167	556	210	0	0	1	0	0	101.3500	13.2800	-101.0900	-12.3900	0.0000	0.0000	0.0000	0.0000;
	37	270	0.00334	0.01382	0.00229	167	556	210	0	0	1	0	0	78.9900	10.3600	-78.7800	-9.7500	0.0000	0.0000	0.0000	0.0000;
	37	273	0.00153	0.00631	0.00104	167	556	210	0	0	1	0	0	2.5300	-0.1100	-2.5300	0.0000	0.0000	0.0000	0.0000	0.0000;
	38	91	0.00853	0.03527	0.00584	167	556	210	0	0	1	0	0	72.3700	-11.3800	-71.9300	12.6000	0.0000	0.0000	0.0000	0.0000;
	38	97	0.01486	0.06145	0.01018	167	556	210	0	0	1	0	0	22.4500	-1.1300	-22.3700	0.3700	0.0000	0.0000	0.0000	0.0000;
	39	1307	0.00092	0.0074	0.02824	453	936	579	0	0	1	0	0	87.1100	-7.7000	-87.0400	5.3100	0.0000	0.0000	0.0000	0.0000;
	39	1469	0.00149	0.0623	0	326	369	423	1	0	1	0	0	38.1000	-3.3600	-38.0700	4.2300	0.0000	0.0000	0.0000	0.0000;
	779	40	0.00339	0.01403	0.00232	167	556	210	0	0	1	0	0	2.0800	-0.2400	-2.0800	0.0000	0.0000	0.0000	0.0000	0.0000;
	932	41	0.00025	0.00105	0.00017	167	556	210	0	0	1	0	0	-42.2400	-6.0400	42.2500	6.0400	0.0000	0.0000	0.0000	0.0000;
	933	41	0.0003	0.00123	0.0002	167	556	210	0	0	1	0	0	-17.9900	-7.2900	17.9900	7.2700	0.0000	0.0000	0.0000	0.0000;
	42	46	0.00072	0.00296	0.00049	167	556	210	0	0	1	0	0	7.5800	-0.1400	-7.5800	0.0900	0.0000	0.0000	0.0000	0.0000;
	1116	42	0.00378	0.01565	0.00259	167	556	210	0	0	1	0	0	-36.2800	1.6700	36.3300	-1.7400	0.0000	0.0000	0.0000	0.0000;
	1328	42	0.02099	0.08681	0.01438	167	556	210	0	0	1	0	0	-24.6500	2.6300	24.7800	-3.6000	0.0000	0.0000	0.0000	0.0000;
	1329	42	0.021	0.08682	0.01438	167	556	210	0	0	1	0	0	-24.6500	2.6300	24.7800	-3.6000	0.0000	0.0000	0.0000	0.0000;
	42	1330	0.00036	0.00149	0.00025	167	556	210	0	0	1	0	0	-63.1800	16.9000	63.1900	-16.8700	0.0000	0.0000	0.0000	0.0000;
	42	1576	0.00889	0.03675	0.00609	167	556	210	0	0	1	0	0	-23.9500	-3.9000	24.0000	3.4700	0.0000	0.0000	0.0000	0.0000;
	42	1576	0.00886	0.03666	0.00607	167	556	210	0	0	1	0	0	-24.0100	-3.9200	24.0600	3.4900	0.0000	0.0000	0.0000	0.0000;
	45	43	0.00052	0.00217	0.00036	167	556	210	0	0	1	0	0	6.6100	-0.7500	-6.6100	0.7200	0.0000	0.0000	0.0000	0.0000;
	1116	43	0.00609	0.02519	0.00417	167	556	210	0	0	1	0	0	-1.5600	0.2800	1.5600	-0.7200	0.0000	0.0000	0.0000	0.0000;
	45	44	0.00034	0.00142	0.00023	167	556	210	0	0	1	0	0	2.5300	-0.0200	-2.5300	0.0000	0.0000	0.0000	0.0000	0.0000;
	45	1330	0.0088	0.03638	0.00602	167	556	210	0	0	1	0	0	-16.7100	0.7800	16.7400	-1.3000	0.0000	0.0000	0.0000	0.0000;
	46	1438	0.00123	0.00508	0.00084	167	556	210	0	0	1	0	0	2.5300	-0.0900	-2.5300	0.0000	0.0000	0.0000	0.0000	0.0000;
	1106	47	0.01392	0.05755	0.00953	167	556	210	0	0	1	0	0	2.5300	-0.9900	-2.5300	0.0000	0.0000	0.0000	0.0000	0.0000;
	48	86	0.01054	0.04358	0.00722	167	556	210	0	0	1	0	0	-16.6300	8.1200	16.6600	-8.7300	0.0000	0.0000	0.0000	0.0000;
	1107	48	0.01145	0.04733	0.00784	167	556	210	0	0	1	0	0	-3.3900	4.1400	3.3900	-4.9500	0.0000	0.0000	0.0000	0.0000;
	48	1108	0.01146	0.0474	0.00785	167	556	210	0	0	1	0	0	3.4000	-4.9400	-3.4000	4.1400	0.0000	0.0000	0.0000	0.0000;
	48	1369	0.02381	0.09844	0.0163	167	556	210	0	0	1	0	0	-0.2700	1.7600	0.2700	-3.4500	0.0000	0.0000	0.0000	0.0000;
	1015	49	0.00233	0.00963	0.00159	167	556	210	0	0	1	0	0	-6.4300	-0.8100	6.4300	0.6500	0.0000	0.0000	0.0000	0.0000;
	1016	49	0.00231	0.00953	0.00158	167	556	210	0	0	1	0	0	10.5800	0.5000	-10.5800	-0.6500	0.0000	0.0000	0.0000	0.0000;
	50	412	0.00331	0.01367	0.00226	167	556	210	0	0	1	0	0	-2.2200	0.0300	2.2200	-0.2600	0.0000	0.0000	0.0000	0.0000;
	1031	50	0.00324	0.01342	0.00222	167	556	210	0	0	1	0	0	1.9300	-0.1900	-1.9300	-0.0300	0.0000	0.0000	0.0000	0.0000;
	51	131	0.00276	0.01143	0.00189	167	556	210	0	0	1	0	0	-4.1800	0.0000	4.1800	-0.1900	0.0000	0.0000	0.0000	0.0000;
	52	131	0.01481	0.06124	0.01014	167	556	210	0	0	1	0	0	11.9200	-0.0800	-11.9000	-0.8900	0.0000	0.0000	0.0000	0.0000;
	53	152	0.03542	0.14646	0.02425	167	556	210	0	0	1	0	0	32.3400	-8.0000	-31.9700	7.0200	0.0000	0.0000	0.0000	0.0000;
	1565	53	0.0223	0.09221	0.01527	167	556	210	0	0	1	0	0	3.4400	-1.1300	-3.4400	-0.4500	0.0000	0.0000	0.0000	0.0000;
	54	132	0.00359	0.02888	0.11019	453	936	579	0	0	1	0	0	-107.2400	27.4300	107.6700	-35.5200	0.0000	0.0000	0.0000	0.0000;
	1303	54	0.00498	0.04	0.15261	453	936	579	0	0	1	0	0	-106.6800	15.8200	107.2400	-27.4300	0.0000	0.0000	0.0000	0.0000;
	55	56	0.00881	0.03642	0.00603	167	556	210	0	0	1	0	0	31.6100	-6.2800	-31.5200	6.0200	0.0000	0.0000	0.0000	0.0000;
	124	55	0.03506	0.14498	0.02401	167	556	210	0	0	1	0	0	-10.0100	2.3700	10.0400	-4.7000	0.0000	0.0000	0.0000	0.0000;
	56	57	0.01171	0.04844	0.00802	167	556	210	0	0	1	0	0	23.1600	-6.0200	-23.1000	5.4600	0.0000	0.0000	0.0000	0.0000;
	57	133	0.01248	0.05159	0.00854	167	556	210	0	0	1	0	0	14.7400	-5.4600	-14.7100	4.6900	0.0000	0.0000	0.0000	0.0000;
	58	353	0.00193	0.00799	0.00132	417	417	417	0	0	1	0	0	119.4900	-6.3300	-119.2300	7.2900	0.0000	0.0000	0.0000	0.0000;
	58	1552	0.00016	0.00068	0.00011	417	417	417	0	0	1	0	0	-125.7600	6.3300	125.7800	-6.2300	0.0000	0.0000	0.0000	0.0000;
	59	83	0.00638	0.02637	0.00437	167	556	210	0	0	1	0	0	-3.6800	1.1700	3.6800	-1.6200	0.0000	0.0000	0.0000	0.0000;
	59	83	0.00637	0.02632	0.00436	167	556	210	0	0	1	0	0	-3.6900	1.1700	3.6900	-1.6200	0.0000	0.0000	0.0000	0.0000;
	1027	59	0.00722	0.02987	0.00495	167	556	210	0	0	1	0	0	-102.2000	14.4000	102.9400	-11.8300	0.0000	0.0000	0.0000	0.0000;
	1028	59	0.00721	0.02982	0.00494	167	556	210	0	0	1	0	0	-102.3500	14.4200	103.1000	-11.8500	0.0000	0.0000	0.0000	0.0000;
	1040	59	0.0223	0.09222	0.01527	167	556	210	0	0	1	0	0	12.7000	-4.9900	-12.6600	3.5600	0.0000	0.0000	0.0000	0.0000;
	1041	59	0.0223	0.09221	0.01527	167	556	210	0	0	1	0	0	12.6200	-4.9700	-12.5800	3.5400	0.0000	0.0000	0.0000	0.0000;
	59	1220	0.00149	0.0623	0	325	325	325	1	0	1	0	0	-161.3600	8.4300	161.7300	7.2000	0.0000	0.0000	0.0000	0.0000;
	60	500	0.03202	0.0728	0.00142	96	250	123	0	0	1	0	0	-8.0600	2.4100	8.0800	-2.5100	0.0000	0.0000	0.0000	0.0000;
	533	60	0.04755	0.10809	0.00211	96	250	123	0	0	1	0	0	-16.6500	-1.4700	16.7800	1.5500	0.0000	0.0000	0.0000	0.0000;
	1271	61	0.03583	0.14818	0.02454	167	556	210	0	0	1	0	0	25.6100	-10.9500	-25.3500	9.5100	0.0000	0.0000	0.0000	0.0000;
	61	1289	0.02422	0.10014	0.01658	167	556	210	0	0	1	0	0	6.3000	-4.7000	-6.2900	3.0400	0.0000	0.0000	0.0000	0.0000;
	61	1289	0.02343	0.09689	0.01604	167	556	210	0	0	1	0	0	6.5100	-4.8000	-6.5000	3.1900	0.0000	0.0000	0.0000	0.0000;
	63	62	0	5e-05	0.00123	1216	1216	1804	0	0	1	0	0	572.5400	-27.9600	-572.5400	27.9900	0.0000	0.0000	0.0000	0.0000;
...